@<TRIPOS>MOLECULE
*****
 29 32 0 0 0
SMALL
GASTEIGER

@<TRIPOS>ATOM
      1 C         143.9930  137.7874  156.0812 C.ar    1  UNL1        0.2245
      2 N         144.6473  139.1233  155.8887 N.ar    1  UNL1       -0.1912
      3 C         144.3425  140.2504  156.8304 C.ar    1  UNL1        0.2037
      4 N         143.3834  140.0415  157.9646 N.ar    1  UNL1       -0.1912
      5 C         142.7291  138.7055  158.1571 C.ar    1  UNL1        0.2242
      6 N         143.0339  137.5785  157.2154 N.ar    1  UNL1       -0.1806
      7 N         141.7699  138.4966  159.2913 N.pl3   1  UNL1       -0.2737
      8 C         140.2933  138.6173  159.0567 C.3     1  UNL1        0.0986
      9 C         139.3342  138.4083  160.1909 C.3     1  UNL1        0.0476
     10 C         139.8516  138.0787  161.5597 C.ar    1  UNL1       -0.0228
     11 C         138.8925  137.8697  162.6939 C.ar    1  UNL1       -0.0045
     12 C         139.4099  137.5401  164.0626 C.ar    1  UNL1       -0.0003
     13 C         140.8866  137.4194  164.2972 C.ar    1  UNL1       -0.0003
     14 C         141.8457  137.6283  163.1630 C.ar    1  UNL1       -0.0029
     15 C         141.3282  137.9580  161.7943 C.ar    1  UNL1       -0.0062
     16 C         142.2874  138.1669  160.6601 C.3     1  UNL1        0.1200
     17 N         144.2978  136.6603  155.1395 N.pl3   1  UNL1       -0.2824
     18 H         145.0264  136.7503  154.4835 H       1  UNL1        0.1551
     19 C         142.9588  133.1178  156.3259 C.ar    1  UNL1        0.0515
     20 C         141.8818  132.8678  155.3123 C.ar    1  UNL1        0.0148
     21 C         141.6100  133.8821  154.2411 C.ar    1  UNL1        0.0025
     22 C         142.4153  135.1462  154.1835 C.ar    1  UNL1        0.0148
     23 C         143.4925  135.3962  155.1971 C.ar    1  UNL1        0.0517
     24 C         143.7642  134.3819  156.2683 C.ar    1  UNL1        0.0293
     25 C         144.5699  130.0548  158.2683 C.3     1  UNL1        0.0949
     26 C         144.2981  131.0690  157.1971 C.2     1  UNL1        0.2266
     27 O         145.0940  131.0487  155.9257 O.2     1  UNL1       -0.2748
     28 N         143.2306  132.1035  157.3971 N.am    1  UNL1       -0.2839
     29 H         142.7082  132.1169  158.2315 H       1  UNL1        0.1549
@<TRIPOS>BOND
     1    25    26    1
     2    26    27    2
     3    26    28   am
     4    28    19    1
     5    19    20   ar
     6    20    21   ar
     7    21    22   ar
     8    22    23   ar
     9    23    17    1
    10    17     1    1
    11     1     2   ar
    12     2     3   ar
    13     3     4   ar
    14     4     5   ar
    15     5     7    1
    16     7     8    1
    17     8     9    1
    18     9    10    1
    19    10    11   ar
    20    11    12   ar
    21    12    13   ar
    22    13    14   ar
    23    14    15   ar
    24    15    16    1
    25     5     6   ar
    26    23    24   ar
    27    24    19   ar
    28     6     1   ar
    29    16     7    1
    30    15    10   ar
    31    28    29    1
    32    17    18    1
@<TRIPOS>MOLECULE
*****
 29 32 0 0 0
SMALL
GASTEIGER

@<TRIPOS>ATOM
      1 C         136.9401  140.8889  156.9759 C.ar    1  UNL1        0.2245
      2 N         137.4816  142.2730  156.7735 N.ar    1  UNL1       -0.1912
      3 C         138.3196  142.9139  157.8399 C.ar    1  UNL1        0.2037
      4 N         138.6160  142.1707  159.1086 N.ar    1  UNL1       -0.1912
      5 C         138.0745  140.7866  159.3110 C.ar    1  UNL1        0.2242
      6 N         137.2366  140.1457  158.2447 N.ar    1  UNL1       -0.1806
      7 N         138.3709  140.0434  160.5798 N.pl3   1  UNL1       -0.2737
      8 C         139.0242  138.6943  160.5236 C.3     1  UNL1        0.0986
      9 C         139.3206  137.9511  161.7923 C.3     1  UNL1        0.0476
     10 C         138.9637  138.5569  163.1174 C.ar    1  UNL1       -0.0228
     11 C         139.2601  137.8136  164.3861 C.ar    1  UNL1       -0.0045
     12 C         138.9031  138.4194  165.7110 C.ar    1  UNL1       -0.0003
     13 C         138.2498  139.7685  165.7673 C.ar    1  UNL1       -0.0003
     14 C         137.9534  140.5117  164.4985 C.ar    1  UNL1       -0.0029
     15 C         138.3103  139.9059  163.1736 C.ar    1  UNL1       -0.0062
     16 C         138.0139  140.6492  161.9048 C.3     1  UNL1        0.1200
     17 N         136.1022  140.2480  155.9096 N.pl3   1  UNL1       -0.2824
     18 H         136.5237  139.6690  155.2340 H       1  UNL1        0.1551
     19 C         132.2630  140.1649  156.9112 C.ar    1  UNL1        0.0515
     20 C         131.6622  140.9716  155.7984 C.ar    1  UNL1        0.0148
     21 C         132.5414  141.5370  154.7226 C.ar    1  UNL1        0.0025
     22 C         134.0214  141.2958  154.7597 C.ar    1  UNL1        0.0148
     23 C         134.6223  140.4892  155.8725 C.ar    1  UNL1        0.0517
     24 C         133.7430  139.9237  156.9483 C.ar    1  UNL1        0.0293
     25 C         129.5819  137.8923  158.7544 C.3     1  UNL1        0.0949
     26 C         130.4611  138.4578  157.6786 C.2     1  UNL1        0.2266
     27 O         130.4177  137.8814  156.2944 O.2     1  UNL1       -0.2748
     28 N         131.3838  139.5995  157.9870 N.am    1  UNL1       -0.2839
     29 H         131.4123  139.9778  158.8955 H       1  UNL1        0.1549
@<TRIPOS>BOND
     1    25    26    1
     2    26    27    2
     3    26    28   am
     4    28    19    1
     5    19    20   ar
     6    20    21   ar
     7    21    22   ar
     8    22    23   ar
     9    23    17    1
    10    17     1    1
    11     1     2   ar
    12     2     3   ar
    13     3     4   ar
    14     4     5   ar
    15     5     7    1
    16     7     8    1
    17     8     9    1
    18     9    10    1
    19    10    11   ar
    20    11    12   ar
    21    12    13   ar
    22    13    14   ar
    23    14    15   ar
    24    15    16    1
    25     5     6   ar
    26    23    24   ar
    27    24    19   ar
    28     6     1   ar
    29    16     7    1
    30    15    10   ar
    31    28    29    1
    32    17    18    1
@<TRIPOS>MOLECULE
*****
 29 32 0 0 0
SMALL
GASTEIGER

@<TRIPOS>ATOM
      1 C         138.3156  140.4801  162.3683 C.ar    1  UNL1        0.2245
      2 N         138.0343  139.1179  161.8071 N.ar    1  UNL1       -0.1912
      3 C         138.5111  137.8947  162.5326 C.ar    1  UNL1        0.2037
      4 N         139.2693  138.0337  163.8194 N.ar    1  UNL1       -0.1912
      5 C         139.5506  139.3960  164.3806 C.ar    1  UNL1        0.2242
      6 N         139.0738  140.6192  163.6550 N.ar    1  UNL1       -0.1806
      7 N         140.3088  139.5351  165.6674 N.pl3   1  UNL1       -0.2737
      8 C         141.7734  139.2142  165.7135 C.3     1  UNL1        0.0986
      9 C         142.5316  139.3533  167.0002 C.3     1  UNL1        0.0476
     10 C         141.8253  139.8134  168.2410 C.ar    1  UNL1       -0.0228
     11 C         142.5835  139.9525  169.5277 C.ar    1  UNL1       -0.0045
     12 C         141.8771  140.4126  170.7684 C.ar    1  UNL1       -0.0003
     13 C         140.4126  140.7336  170.7224 C.ar    1  UNL1       -0.0003
     14 C         139.6544  140.5945  169.4356 C.ar    1  UNL1       -0.0029
     15 C         140.3607  140.1344  168.1949 C.ar    1  UNL1       -0.0062
     16 C         139.6025  139.9953  166.9081 C.3     1  UNL1        0.1200
     17 N         137.8388  141.7033  161.6427 N.pl3   1  UNL1       -0.2824
     18 H         137.0265  141.6613  161.0881 H       1  UNL1        0.1551
     19 C         140.4314  144.6112  160.8857 C.ar    1  UNL1        0.0515
     20 C         140.1213  145.5649  162.0011 C.ar    1  UNL1        0.0148
     21 C         139.0504  145.2314  162.9971 C.ar    1  UNL1        0.0025
     22 C         138.2896  143.9443  162.8777 C.ar    1  UNL1        0.0148
     23 C         138.5996  142.9905  161.7622 C.ar    1  UNL1        0.0517
     24 C         139.6705  143.3240  160.7662 C.ar    1  UNL1        0.0293
     25 C         142.2071  145.9012  157.5792 C.3     1  UNL1        0.0949
     26 C         141.1362  145.5677  158.5752 C.2     1  UNL1        0.2266
     27 O         139.6993  145.8573  158.2567 O.2     1  UNL1       -0.2748
     28 N         141.5022  144.9447  159.8897 N.am    1  UNL1       -0.2839
     29 H         142.4453  144.7546  160.0987 H       1  UNL1        0.1549
@<TRIPOS>BOND
     1    25    26    1
     2    26    27    2
     3    26    28   am
     4    28    19    1
     5    19    20   ar
     6    20    21   ar
     7    21    22   ar
     8    22    23   ar
     9    23    17    1
    10    17     1    1
    11     1     2   ar
    12     2     3   ar
    13     3     4   ar
    14     4     5   ar
    15     5     7    1
    16     7     8    1
    17     8     9    1
    18     9    10    1
    19    10    11   ar
    20    11    12   ar
    21    12    13   ar
    22    13    14   ar
    23    14    15   ar
    24    15    16    1
    25     5     6   ar
    26    23    24   ar
    27    24    19   ar
    28     6     1   ar
    29    16     7    1
    30    15    10   ar
    31    28    29    1
    32    17    18    1
@<TRIPOS>MOLECULE
*****
 29 32 0 0 0
SMALL
GASTEIGER

@<TRIPOS>ATOM
      1 C         143.7928  141.5000  162.7024 C.ar    1  UNL1        0.2245
      2 N         144.1975  140.1712  162.1364 N.ar    1  UNL1       -0.1912
      3 C         144.1055  138.9361  162.9827 C.ar    1  UNL1        0.2037
      4 N         143.6088  139.0299  164.3949 N.ar    1  UNL1       -0.1912
      5 C         143.2041  140.3587  164.9609 C.ar    1  UNL1        0.2242
      6 N         143.2961  141.5938  164.1146 N.ar    1  UNL1       -0.1806
      7 N         142.7073  140.4525  166.3732 N.pl3   1  UNL1       -0.2737
      8 C         142.9460  139.3213  167.3288 C.3     1  UNL1        0.0986
      9 C         142.4493  139.4150  168.7411 C.3     1  UNL1        0.0476
     10 C         141.7138  140.6401  169.1977 C.ar    1  UNL1       -0.0228
     11 C         141.2171  140.7339  170.6099 C.ar    1  UNL1       -0.0045
     12 C         140.4818  141.9589  171.0665 C.ar    1  UNL1       -0.0003
     13 C         140.2431  143.0901  170.1108 C.ar    1  UNL1       -0.0003
     14 C         140.7398  142.9964  168.6986 C.ar    1  UNL1       -0.0029
     15 C         141.4752  141.7714  168.2420 C.ar    1  UNL1       -0.0062
     16 C         141.9719  141.6775  166.8297 C.3     1  UNL1        0.1200
     17 N         143.8848  142.7351  161.8562 N.pl3   1  UNL1       -0.2824
     18 H         144.7314  142.9631  161.4084 H       1  UNL1        0.1551
     19 C         140.7524  145.0073  162.7366 C.ar    1  UNL1        0.0515
     20 C         140.2911  145.3983  161.3640 C.ar    1  UNL1        0.0148
     21 C         141.0276  144.9016  160.1554 C.ar    1  UNL1        0.0025
     22 C         142.2255  144.0139  160.3194 C.ar    1  UNL1        0.0148
     23 C         142.6869  143.6228  161.6921 C.ar    1  UNL1        0.0517
     24 C         141.9504  144.1195  162.9007 C.ar    1  UNL1        0.0293
     25 C         138.3061  145.1041  165.8601 C.3     1  UNL1        0.0949
     26 C         139.0426  144.6074  164.6515 C.2     1  UNL1        0.2266
     27 O         138.8059  143.2139  164.1491 O.2     1  UNL1       -0.2748
     28 N         140.0159  145.5040  163.9453 N.am    1  UNL1       -0.2839
     29 H         140.1712  146.4186  164.2750 H       1  UNL1        0.1549
@<TRIPOS>BOND
     1    25    26    1
     2    26    27    2
     3    26    28   am
     4    28    19    1
     5    19    20   ar
     6    20    21   ar
     7    21    22   ar
     8    22    23   ar
     9    23    17    1
    10    17     1    1
    11     1     2   ar
    12     2     3   ar
    13     3     4   ar
    14     4     5   ar
    15     5     7    1
    16     7     8    1
    17     8     9    1
    18     9    10    1
    19    10    11   ar
    20    11    12   ar
    21    12    13   ar
    22    13    14   ar
    23    14    15   ar
    24    15    16    1
    25     5     6   ar
    26    23    24   ar
    27    24    19   ar
    28     6     1   ar
    29    16     7    1
    30    15    10   ar
    31    28    29    1
    32    17    18    1
@<TRIPOS>MOLECULE
*****
 29 32 0 0 0
SMALL
GASTEIGER

@<TRIPOS>ATOM
      1 C         142.2524  144.3697  161.9061 C.ar    1  UNL1        0.2245
      2 N         143.7009  144.0695  161.6580 N.ar    1  UNL1       -0.1912
      3 C         144.4247  143.0905  162.5342 C.ar    1  UNL1        0.2037
      4 N         143.6999  142.4117  163.6584 N.ar    1  UNL1       -0.1912
      5 C         142.2514  142.7119  163.9064 C.ar    1  UNL1        0.2242
      6 N         141.5276  143.6910  163.0303 N.ar    1  UNL1       -0.1806
      7 N         141.5265  142.0331  165.0307 N.pl3   1  UNL1       -0.2737
      8 C         140.9157  140.6794  164.8202 C.3     1  UNL1        0.0986
      9 C         140.1908  140.0006  165.9443 C.3     1  UNL1        0.0476
     10 C         140.0768  140.6755  167.2791 C.ar    1  UNL1       -0.0228
     11 C         139.3520  139.9967  168.4033 C.ar    1  UNL1       -0.0045
     12 C         139.2379  140.6716  169.7380 C.ar    1  UNL1       -0.0003
     13 C         139.8488  142.0254  169.9485 C.ar    1  UNL1       -0.0003
     14 C         140.5736  142.7042  168.8243 C.ar    1  UNL1       -0.0029
     15 C         140.6876  142.0292  167.4896 C.ar    1  UNL1       -0.0062
     16 C         141.4125  142.7080  166.3654 C.3     1  UNL1        0.1200
     17 N         141.5287  145.3488  161.0299 N.pl3   1  UNL1       -0.2824
     18 H         141.4918  146.3001  161.2806 H       1  UNL1        0.1551
     19 C         140.4493  145.1189  157.2178 C.ar    1  UNL1        0.0515
     20 C         139.5258  143.9376  157.2554 C.ar    1  UNL1        0.0148
     21 C         139.2699  143.2266  158.5512 C.ar    1  UNL1        0.0025
     22 C         139.9375  143.6969  159.8093 C.ar    1  UNL1        0.0148
     23 C         140.8610  144.8784  159.7717 C.ar    1  UNL1        0.0517
     24 C         141.1169  145.5894  158.4760 C.ar    1  UNL1        0.0293
     25 C         140.1781  147.7724  154.2792 C.3     1  UNL1        0.0949
     26 C         139.9223  147.0614  155.5749 C.2     1  UNL1        0.2266
     27 O         138.8835  147.5820  156.5236 O.2     1  UNL1       -0.2748
     28 N         140.7051  145.8299  155.9220 N.am    1  UNL1       -0.2839
     29 H         141.3869  145.4883  155.2994 H       1  UNL1        0.1549
@<TRIPOS>BOND
     1    25    26    1
     2    26    27    2
     3    26    28   am
     4    28    19    1
     5    19    20   ar
     6    20    21   ar
     7    21    22   ar
     8    22    23   ar
     9    23    17    1
    10    17     1    1
    11     1     2   ar
    12     2     3   ar
    13     3     4   ar
    14     4     5   ar
    15     5     7    1
    16     7     8    1
    17     8     9    1
    18     9    10    1
    19    10    11   ar
    20    11    12   ar
    21    12    13   ar
    22    13    14   ar
    23    14    15   ar
    24    15    16    1
    25     5     6   ar
    26    23    24   ar
    27    24    19   ar
    28     6     1   ar
    29    16     7    1
    30    15    10   ar
    31    28    29    1
    32    17    18    1
@<TRIPOS>MOLECULE
*****
 29 32 0 0 0
SMALL
GASTEIGER

@<TRIPOS>ATOM
      1 C         143.0949  137.8730  156.8738 C.ar    1  UNL1        0.2245
      2 N         142.3973  139.0288  156.2200 N.ar    1  UNL1       -0.1912
      3 C         141.6465  140.0222  157.0564 C.ar    1  UNL1        0.2037
      4 N         141.5933  139.8598  158.5466 N.ar    1  UNL1       -0.1912
      5 C         142.2908  138.7040  159.2004 C.ar    1  UNL1        0.2242
      6 N         143.0416  137.7106  158.3640 N.ar    1  UNL1       -0.1806
      7 N         142.2376  138.5415  160.6907 N.pl3   1  UNL1       -0.2737
      8 C         141.0240  137.9419  161.3369 C.3     1  UNL1        0.0986
      9 C         140.9707  137.7795  162.8270 C.3     1  UNL1        0.0476
     10 C         142.1311  138.2166  163.6711 C.ar    1  UNL1       -0.0228
     11 C         142.0778  138.0542  165.1613 C.ar    1  UNL1       -0.0045
     12 C         143.2382  138.4913  166.0054 C.ar    1  UNL1       -0.0003
     13 C         144.4518  139.0910  165.3592 C.ar    1  UNL1       -0.0003
     14 C         144.5051  139.2534  163.8690 C.ar    1  UNL1       -0.0029
     15 C         143.3447  138.8163  163.0250 C.ar    1  UNL1       -0.0062
     16 C         143.3979  138.9787  161.5347 C.3     1  UNL1        0.1200
     17 N         143.8457  136.8796  156.0375 N.pl3   1  UNL1       -0.2824
     18 H         144.7188  137.1209  155.6519 H       1  UNL1        0.1551
     19 C         142.9204  133.0513  156.5249 C.ar    1  UNL1        0.0515
     20 C         142.1070  132.7969  155.2906 C.ar    1  UNL1        0.0148
     21 C         141.8731  133.9034  154.3052 C.ar    1  UNL1        0.0025
     22 C         142.4527  135.2643  154.5542 C.ar    1  UNL1        0.0148
     23 C         143.2661  135.5187  155.7885 C.ar    1  UNL1        0.0517
     24 C         143.5000  134.4122  156.7739 C.ar    1  UNL1        0.0293
     25 C         144.5399  129.8962  158.3061 C.3     1  UNL1        0.0949
     26 C         144.3060  131.0027  157.3208 C.2     1  UNL1        0.2266
     27 O         145.2240  131.1671  156.1458 O.2     1  UNL1       -0.2748
     28 N         143.1543  131.9447  157.5103 N.am    1  UNL1       -0.2839
     29 H         142.5518  131.8368  158.2814 H       1  UNL1        0.1549
@<TRIPOS>BOND
     1    25    26    1
     2    26    27    2
     3    26    28   am
     4    28    19    1
     5    19    20   ar
     6    20    21   ar
     7    21    22   ar
     8    22    23   ar
     9    23    17    1
    10    17     1    1
    11     1     2   ar
    12     2     3   ar
    13     3     4   ar
    14     4     5   ar
    15     5     7    1
    16     7     8    1
    17     8     9    1
    18     9    10    1
    19    10    11   ar
    20    11    12   ar
    21    12    13   ar
    22    13    14   ar
    23    14    15   ar
    24    15    16    1
    25     5     6   ar
    26    23    24   ar
    27    24    19   ar
    28     6     1   ar
    29    16     7    1
    30    15    10   ar
    31    28    29    1
    32    17    18    1
@<TRIPOS>MOLECULE
*****
 29 32 0 0 0
SMALL
GASTEIGER

@<TRIPOS>ATOM
      1 C         141.5290  138.0699  162.3930 C.ar    1  UNL1        0.2245
      2 N         140.2335  137.4054  162.0325 N.ar    1  UNL1       -0.1912
      3 C         138.9907  137.7108  162.8149 C.ar    1  UNL1        0.2037
      4 N         139.0434  138.6808  163.9579 N.ar    1  UNL1       -0.1912
      5 C         140.3390  139.3453  164.3184 C.ar    1  UNL1        0.2242
      6 N         141.5817  139.0399  163.5360 N.ar    1  UNL1       -0.1806
      7 N         140.3917  140.3153  165.4614 N.pl3   1  UNL1       -0.2737
      8 C         140.9716  141.6836  165.2577 C.3     1  UNL1        0.0986
      9 C         141.0243  142.6536  166.4006 C.3     1  UNL1        0.0476
     10 C         140.4973  142.2553  167.7473 C.ar    1  UNL1       -0.0228
     11 C         140.5500  143.2253  168.8902 C.ar    1  UNL1       -0.0045
     12 C         140.0230  142.8270  170.2369 C.ar    1  UNL1       -0.0003
     13 C         139.4432  141.4587  170.4406 C.ar    1  UNL1       -0.0003
     14 C         139.3904  140.4887  169.2977 C.ar    1  UNL1       -0.0029
     15 C         139.9174  140.8870  167.9511 C.ar    1  UNL1       -0.0062
     16 C         139.8647  139.9170  166.8081 C.3     1  UNL1        0.1200
     17 N         142.7718  137.7645  161.6106 N.pl3   1  UNL1       -0.2824
     18 H         143.4392  137.1373  161.9719 H       1  UNL1        0.1551
     19 C         142.7302  138.4011  157.6936 C.ar    1  UNL1        0.0515
     20 C         143.4496  139.7148  157.6123 C.ar    1  UNL1        0.0148
     21 C         143.9431  140.3784  158.8637 C.ar    1  UNL1        0.0025
     22 C         143.7172  139.7283  160.1965 C.ar    1  UNL1        0.0148
     23 C         142.9977  138.4146  160.2779 C.ar    1  UNL1        0.0517
     24 C         142.5043  137.7509  159.0264 C.ar    1  UNL1        0.0293
     25 C         142.7192  136.4500  154.2377 C.3     1  UNL1        0.0949
     26 C         143.2127  137.1136  155.4892 C.2     1  UNL1        0.2266
     27 O         144.6823  137.1533  155.7876 O.2     1  UNL1       -0.2748
     28 N         142.2368  137.7375  156.4422 N.am    1  UNL1       -0.2839
     29 H         141.2723  137.7114  156.2463 H       1  UNL1        0.1549
@<TRIPOS>BOND
     1    25    26    1
     2    26    27    2
     3    26    28   am
     4    28    19    1
     5    19    20   ar
     6    20    21   ar
     7    21    22   ar
     8    22    23   ar
     9    23    17    1
    10    17     1    1
    11     1     2   ar
    12     2     3   ar
    13     3     4   ar
    14     4     5   ar
    15     5     7    1
    16     7     8    1
    17     8     9    1
    18     9    10    1
    19    10    11   ar
    20    11    12   ar
    21    12    13   ar
    22    13    14   ar
    23    14    15   ar
    24    15    16    1
    25     5     6   ar
    26    23    24   ar
    27    24    19   ar
    28     6     1   ar
    29    16     7    1
    30    15    10   ar
    31    28    29    1
    32    17    18    1
@<TRIPOS>MOLECULE
*****
 29 32 0 0 0
SMALL
GASTEIGER

@<TRIPOS>ATOM
      1 C         142.8925  138.2959  157.6211 C.ar    1  UNL1        0.2245
      2 N         143.7862  138.9710  156.6233 N.ar    1  UNL1       -0.1912
      3 C         144.4876  138.1593  155.5749 C.ar    1  UNL1        0.2037
      4 N         144.2955  136.6726  155.5242 N.ar    1  UNL1       -0.1912
      5 C         143.4018  135.9975  156.5220 C.ar    1  UNL1        0.2242
      6 N         142.7004  136.8091  157.5704 N.ar    1  UNL1       -0.1806
      7 N         143.2096  134.5107  156.4714 N.pl3   1  UNL1       -0.2737
      8 C         142.1064  133.9249  155.6408 C.3     1  UNL1        0.0986
      9 C         141.9141  132.4382  155.5902 C.3     1  UNL1        0.0476
     10 C         142.8252  131.5371  156.3701 C.ar    1  UNL1       -0.0228
     11 C         142.6329  130.0504  156.3194 C.ar    1  UNL1       -0.0045
     12 C         143.5440  129.1494  157.0993 C.ar    1  UNL1       -0.0003
     13 C         144.6472  129.7351  157.9298 C.ar    1  UNL1       -0.0003
     14 C         144.8394  131.2218  157.9804 C.ar    1  UNL1       -0.0029
     15 C         143.9284  132.1228  157.2006 C.ar    1  UNL1       -0.0062
     16 C         144.1206  133.6097  157.2512 C.3     1  UNL1        0.1200
     17 N         142.1911  139.1075  158.6695 N.pl3   1  UNL1       -0.2824
     18 H         141.5477  139.8038  158.4042 H       1  UNL1        0.1551
     19 C         141.7028  137.9713  162.4406 C.ar    1  UNL1        0.0515
     20 C         143.0275  138.3595  163.0274 C.ar    1  UNL1        0.0148
     21 C         144.0734  138.9970  162.1616 C.ar    1  UNL1        0.0025
     22 C         143.7946  139.2463  160.7090 C.ar    1  UNL1        0.0148
     23 C         142.4699  138.8581  160.1221 C.ar    1  UNL1        0.0517
     24 C         141.4239  138.2206  160.9879 C.ar    1  UNL1        0.0293
     25 C         138.8366  137.5296  165.1497 C.3     1  UNL1        0.0949
     26 C         139.8825  138.1671  164.2840 C.2     1  UNL1        0.2266
     27 O         140.1540  139.6382  164.3958 O.2     1  UNL1       -0.2748
     28 N         140.6569  137.3337  163.3064 N.am    1  UNL1       -0.2839
     29 H         140.4786  136.3683  163.2330 H       1  UNL1        0.1549
@<TRIPOS>BOND
     1    25    26    1
     2    26    27    2
     3    26    28   am
     4    28    19    1
     5    19    20   ar
     6    20    21   ar
     7    21    22   ar
     8    22    23   ar
     9    23    17    1
    10    17     1    1
    11     1     2   ar
    12     2     3   ar
    13     3     4   ar
    14     4     5   ar
    15     5     7    1
    16     7     8    1
    17     8     9    1
    18     9    10    1
    19    10    11   ar
    20    11    12   ar
    21    12    13   ar
    22    13    14   ar
    23    14    15   ar
    24    15    16    1
    25     5     6   ar
    26    23    24   ar
    27    24    19   ar
    28     6     1   ar
    29    16     7    1
    30    15    10   ar
    31    28    29    1
    32    17    18    1
@<TRIPOS>MOLECULE
*****
 29 32 0 0 0
SMALL
GASTEIGER

@<TRIPOS>ATOM
      1 C         141.5015  138.2672  162.3015 C.ar    1  UNL1        0.2245
      2 N         140.2321  137.7986  161.6542 N.ar    1  UNL1       -0.1912
      3 C         138.9509  137.7911  162.4343 C.ar    1  UNL1        0.2037
      4 N         138.9391  138.2522  163.8616 N.ar    1  UNL1       -0.1912
      5 C         140.2085  138.7208  164.5088 C.ar    1  UNL1        0.2242
      6 N         141.4897  138.7283  163.7288 N.ar    1  UNL1       -0.1806
      7 N         140.1968  139.1819  165.9362 N.pl3   1  UNL1       -0.2737
      8 C         138.8963  139.3072  166.6732 C.3     1  UNL1        0.0986
      9 C         138.8846  139.7683  168.1005 C.3     1  UNL1        0.0476
     10 C         140.1733  140.1042  168.7908 C.ar    1  UNL1       -0.0228
     11 C         140.1615  140.5653  170.2181 C.ar    1  UNL1       -0.0045
     12 C         141.4501  140.9011  170.9084 C.ar    1  UNL1       -0.0003
     13 C         142.7506  140.7758  170.1714 C.ar    1  UNL1       -0.0003
     14 C         142.7623  140.3147  168.7441 C.ar    1  UNL1       -0.0029
     15 C         141.4737  139.9789  168.0538 C.ar    1  UNL1       -0.0062
     16 C         141.4854  139.5178  166.6265 C.3     1  UNL1        0.1200
     17 N         142.7827  138.2747  161.5214 N.pl3   1  UNL1       -0.2824
     18 H         143.2914  137.4403  161.4024 H       1  UNL1        0.1551
     19 C         144.1501  141.9876  161.2126 C.ar    1  UNL1        0.0515
     20 C         144.3010  142.1113  159.7254 C.ar    1  UNL1        0.0148
     21 C         143.9459  140.9561  158.8368 C.ar    1  UNL1        0.0025
     22 C         143.4398  139.6773  159.4355 C.ar    1  UNL1        0.0148
     23 C         143.2888  139.5536  160.9228 C.ar    1  UNL1        0.0517
     24 C         143.6439  140.7087  161.8114 C.ar    1  UNL1        0.0293
     25 C         143.7790  145.1750  163.5477 C.3     1  UNL1        0.0949
     26 C         143.4239  144.0199  162.6591 C.2     1  UNL1        0.2266
     27 O         141.9874  143.7420  162.3284 O.2     1  UNL1       -0.2748
     28 N         144.5052  143.1427  162.1012 N.am    1  UNL1       -0.2839
     29 H         145.4480  143.3251  162.3182 H       1  UNL1        0.1549
@<TRIPOS>BOND
     1    25    26    1
     2    26    27    2
     3    26    28   am
     4    28    19    1
     5    19    20   ar
     6    20    21   ar
     7    21    22   ar
     8    22    23   ar
     9    23    17    1
    10    17     1    1
    11     1     2   ar
    12     2     3   ar
    13     3     4   ar
    14     4     5   ar
    15     5     7    1
    16     7     8    1
    17     8     9    1
    18     9    10    1
    19    10    11   ar
    20    11    12   ar
    21    12    13   ar
    22    13    14   ar
    23    14    15   ar
    24    15    16    1
    25     5     6   ar
    26    23    24   ar
    27    24    19   ar
    28     6     1   ar
    29    16     7    1
    30    15    10   ar
    31    28    29    1
    32    17    18    1
