@<TRIPOS>MOLECULE
*****
 30 32 0 0 0
SMALL
GASTEIGER

@<TRIPOS>ATOM
      1 C         139.3511  140.7467  163.1976 C.ar    1  UNL1       -0.0197
      2 C         140.6042  141.3710  163.7360 C.ar    1  UNL1       -0.0042
      3 C         140.8270  141.4480  165.2174 C.ar    1  UNL1       -0.0003
      4 C         139.7966  140.9009  166.1602 C.ar    1  UNL1       -0.0000
      5 C         138.5435  140.2767  165.6217 C.ar    1  UNL1       -0.0003
      6 C         138.3208  140.1996  164.1404 C.ar    1  UNL1       -0.0042
      7 C         138.3554  141.6532  160.8884 C.3     1  UNL1        0.0964
      8 C         138.3888  141.1868  159.4631 C.3     1  UNL1        0.0901
      9 N         139.1823  139.9149  159.4100 N.3     1  UNL1       -0.2700
     10 C         139.4685  139.1050  158.1804 C.3     1  UNL1        0.0897
     11 C         139.6394  139.5953  160.8025 C.3     1  UNL1        0.0780
     12 C         139.1283  140.6696  161.7161 C.3     1  UNL1        0.0557
     13 N         137.6696  142.8866  161.3966 N.3     1  UNL1       -0.1830
     14 H         137.2960  143.3728  160.5815 H       1  UNL1        0.1484
     15 S         138.4397  143.9001  162.1900 S.O2    1  UNL1        0.0390
     16 O         139.3068  144.1749  160.9973 O.2     1  UNL1       -0.1576
     17 O         137.5727  143.6254  163.3827 O.2     1  UNL1       -0.1576
     18 C         139.9691  145.9985  162.2784 C.3     1  UNL1        0.0270
     19 C         139.2099  144.9137  162.9834 C.3     1  UNL1        0.1457
     20 C         139.2210  144.8425  164.4816 C.3     1  UNL1        0.0270
     21 C         140.0194  140.9780  167.6416 C.ar    1  UNL1       -0.0001
     22 C         139.2142  140.1149  168.5671 C.ar    1  UNL1       -0.0000
     23 C         139.4369  140.1920  170.0485 C.ar    1  UNL1       -0.0001
     24 C         140.4650  141.1323  170.6044 C.ar    1  UNL1        0.0039
     25 C         141.2703  141.9955  169.6788 C.ar    1  UNL1        0.0714
     26 C         141.0474  141.9183  168.1975 C.ar    1  UNL1        0.0039
     27 C         142.2983  142.9358  170.2347 C.3     1  UNL1        0.4186
     28 F         143.3264  143.8760  170.7905 F       1  UNL1       -0.1659
     29 F         141.3309  144.0740  170.0983 F       1  UNL1       -0.1659
     30 F         143.2657  141.7975  170.3710 F       1  UNL1       -0.1659
@<TRIPOS>BOND
     1    18    19    1
     2    19    20    1
     3    19    15    1
     4    15    16    2
     5    15    17    2
     6    15    13    1
     7     7    13    1
     8     7     8    1
     9     8     9    1
    10     9    10    1
    11     9    11    1
    12    11    12    1
    13    12     1    1
    14     1     2   ar
    15     2     3   ar
    16     3     4   ar
    17     4    21    1
    18    21    22   ar
    19    22    23   ar
    20    23    24   ar
    21    24    25   ar
    22    25    27    1
    23    27    28    1
    24    27    29    1
    25    27    30    1
    26    25    26   ar
    27     4     5   ar
    28     5     6   ar
    29    12     7    1
    30     6     1   ar
    31    26    21   ar
    32    13    14    1
@<TRIPOS>MOLECULE
*****
 30 32 0 0 0
SMALL
GASTEIGER

@<TRIPOS>ATOM
      1 C         140.1003  141.1471  162.7980 C.ar    1  UNL1       -0.0197
      2 C         139.2986  140.6895  163.9802 C.ar    1  UNL1       -0.0042
      3 C         139.7556  141.0209  165.3699 C.ar    1  UNL1       -0.0003
      4 C         141.0144  141.8099  165.5773 C.ar    1  UNL1       -0.0000
      5 C         141.8161  142.2675  164.3951 C.ar    1  UNL1       -0.0003
      6 C         141.3591  141.9361  163.0054 C.ar    1  UNL1       -0.0042
      7 C         138.5688  141.5269  160.6403 C.3     1  UNL1        0.0964
      8 C         138.4420  140.8657  159.2999 C.3     1  UNL1        0.0901
      9 N         139.4382  139.7458  159.2393 N.3     1  UNL1       -0.2700
     10 C         139.6540  138.8194  158.0795 C.3     1  UNL1        0.0897
     11 C         140.1806  139.7149  160.5424 C.3     1  UNL1        0.0780
     12 C         139.6433  140.8157  161.4082 C.3     1  UNL1        0.0557
     13 N         137.7627  142.6944  161.1272 N.3     1  UNL1       -0.1830
     14 H         137.3548  143.1349  160.3027 H       1  UNL1        0.1484
     15 S         138.4232  143.7842  161.9183 S.O2    1  UNL1        0.0390
     16 O         137.5700  143.4410  163.1034 O.2     1  UNL1       -0.1576
     17 O         139.2763  144.1274  160.7334 O.2     1  UNL1       -0.1576
     18 C         139.0848  144.8175  164.2085 C.3     1  UNL1        0.0270
     19 C         139.0836  144.8741  162.7096 C.3     1  UNL1        0.1457
     20 C         139.7429  146.0206  162.0018 C.3     1  UNL1        0.0270
     21 C         141.4714  142.1413  166.9671 C.ar    1  UNL1       -0.0001
     22 C         142.9258  142.0450  167.3213 C.ar    1  UNL1       -0.0000
     23 C         143.3828  142.3764  168.7111 C.ar    1  UNL1       -0.0001
     24 C         142.3854  142.8040  169.7466 C.ar    1  UNL1        0.0039
     25 C         140.9309  142.9002  169.3923 C.ar    1  UNL1        0.0714
     26 C         140.4740  142.5689  168.0026 C.ar    1  UNL1        0.0039
     27 C         139.9335  143.3278  170.4278 C.3     1  UNL1        0.4186
     28 F         138.9361  143.7555  171.4634 F       1  UNL1       -0.1659
     29 F         140.3463  144.7570  170.2353 F       1  UNL1       -0.1659
     30 F         139.5207  141.8987  170.6204 F       1  UNL1       -0.1659
@<TRIPOS>BOND
     1    18    19    1
     2    19    20    1
     3    19    15    1
     4    15    16    2
     5    15    17    2
     6    15    13    1
     7     7    13    1
     8     7     8    1
     9     8     9    1
    10     9    10    1
    11     9    11    1
    12    11    12    1
    13    12     1    1
    14     1     2   ar
    15     2     3   ar
    16     3     4   ar
    17     4    21    1
    18    21    22   ar
    19    22    23   ar
    20    23    24   ar
    21    24    25   ar
    22    25    27    1
    23    27    28    1
    24    27    29    1
    25    27    30    1
    26    25    26   ar
    27     4     5   ar
    28     5     6   ar
    29    12     7    1
    30     6     1   ar
    31    26    21   ar
    32    13    14    1
@<TRIPOS>MOLECULE
*****
 30 32 0 0 0
SMALL
GASTEIGER

@<TRIPOS>ATOM
      1 C         142.3934  142.9838  162.2025 C.ar    1  UNL1       -0.0197
      2 C         141.5305  141.8430  162.6538 C.ar    1  UNL1       -0.0042
      3 C         141.6293  141.3398  164.0634 C.ar    1  UNL1       -0.0003
      4 C         142.5911  141.9776  165.0217 C.ar    1  UNL1       -0.0000
      5 C         143.4540  143.1185  164.5704 C.ar    1  UNL1       -0.0003
      6 C         143.3552  143.6216  163.1608 C.ar    1  UNL1       -0.0042
      7 C         141.5541  144.7117  160.3437 C.3     1  UNL1        0.0964
      8 C         141.7208  144.8354  158.8581 C.3     1  UNL1        0.0901
      9 N         142.5643  143.6871  158.3891 N.3     1  UNL1       -0.2700
     10 C         142.9801  143.4192  156.9730 C.3     1  UNL1        0.0897
     11 C         142.9189  142.8537  159.5848 C.3     1  UNL1        0.0780
     12 C         142.2946  143.4870  160.7928 C.3     1  UNL1        0.0557
     13 N         140.7825  145.6484  161.2253 N.3     1  UNL1       -0.1830
     14 H         141.4675  146.2306  161.7072 H       1  UNL1        0.1484
     15 S         139.8624  145.1022  162.2764 S.O2    1  UNL1        0.0390
     16 O         138.9960  144.5048  161.2075 O.2     1  UNL1       -0.1576
     17 O         140.7287  145.6996  163.3452 O.2     1  UNL1       -0.1576
     18 C         137.7526  143.7337  162.9291 C.3     1  UNL1        0.0270
     19 C         138.9422  144.5560  163.3275 C.3     1  UNL1        0.1457
     20 C         139.2116  144.8320  164.7771 C.3     1  UNL1        0.0270
     21 C         142.6899  141.4744  166.4314 C.ar    1  UNL1       -0.0001
     22 C         142.5218  140.0120  166.7192 C.ar    1  UNL1       -0.0000
     23 C         142.6207  139.5088  168.1289 C.ar    1  UNL1       -0.0001
     24 C         142.8876  140.4681  169.2507 C.ar    1  UNL1        0.0039
     25 C         143.0557  141.9307  168.9628 C.ar    1  UNL1        0.0714
     26 C         142.9568  142.4338  167.5532 C.ar    1  UNL1        0.0039
     27 C         143.3226  142.8900  170.0846 C.3     1  UNL1        0.4186
     28 F         143.5895  143.8494  171.2063 F       1  UNL1       -0.1659
     29 F         141.8741  143.2798  170.0959 F       1  UNL1       -0.1659
     30 F         144.7710  142.5003  170.0732 F       1  UNL1       -0.1659
@<TRIPOS>BOND
     1    18    19    1
     2    19    20    1
     3    19    15    1
     4    15    16    2
     5    15    17    2
     6    15    13    1
     7     7    13    1
     8     7     8    1
     9     8     9    1
    10     9    10    1
    11     9    11    1
    12    11    12    1
    13    12     1    1
    14     1     2   ar
    15     2     3   ar
    16     3     4   ar
    17     4    21    1
    18    21    22   ar
    19    22    23   ar
    20    23    24   ar
    21    24    25   ar
    22    25    27    1
    23    27    28    1
    24    27    29    1
    25    27    30    1
    26    25    26   ar
    27     4     5   ar
    28     5     6   ar
    29    12     7    1
    30     6     1   ar
    31    26    21   ar
    32    13    14    1
@<TRIPOS>MOLECULE
*****
 30 32 0 0 0
SMALL
GASTEIGER

@<TRIPOS>ATOM
      1 C         142.9541  139.8967  162.9660 C.ar    1  UNL1       -0.0197
      2 C         141.9810  140.9389  163.4317 C.ar    1  UNL1       -0.0042
      3 C         141.7927  141.1868  164.8990 C.ar    1  UNL1       -0.0003
      4 C         142.5774  140.3925  165.9006 C.ar    1  UNL1       -0.0000
      5 C         143.5505  139.3503  165.4349 C.ar    1  UNL1       -0.0003
      6 C         143.7389  139.1024  163.9676 C.ar    1  UNL1       -0.0042
      7 C         142.6068  138.4800  160.7260 C.3     1  UNL1        0.0964
      8 C         143.0329  138.6350  159.2962 C.3     1  UNL1        0.0901
      9 N         143.8319  139.8997  159.1851 N.3     1  UNL1       -0.2700
     10 C         144.4540  140.4424  157.9327 C.3     1  UNL1        0.0897
     11 C         143.8996  140.5262  160.5463 C.3     1  UNL1        0.0780
     12 C         143.1425  139.6488  161.4986 C.3     1  UNL1        0.0557
     13 N         141.7888  137.3539  161.2850 N.3     1  UNL1       -0.1830
     14 H         141.5024  136.7771  160.4940 H       1  UNL1        0.1484
     15 S         140.5496  137.6482  162.0773 S.O2    1  UNL1        0.0390
     16 O         141.1025  136.8669  163.2323 O.2     1  UNL1       -0.1576
     17 O         139.9967  138.4295  160.9225 O.2     1  UNL1       -0.1576
     18 C         138.0411  138.3190  162.1647 C.3     1  UNL1        0.0270
     19 C         139.3105  137.9426  162.8697 C.3     1  UNL1        0.1457
     20 C         139.3407  137.8605  164.3672 C.3     1  UNL1        0.0270
     21 C         142.3891  140.6404  167.3680 C.ar    1  UNL1       -0.0001
     22 C         142.6997  139.5570  168.3576 C.ar    1  UNL1       -0.0000
     23 C         142.5114  139.8049  169.8250 C.ar    1  UNL1       -0.0001
     24 C         142.0123  141.1364  170.3026 C.ar    1  UNL1        0.0039
     25 C         141.7016  142.2199  169.3129 C.ar    1  UNL1        0.0714
     26 C         141.8900  141.9719  167.8456 C.ar    1  UNL1        0.0039
     27 C         141.2025  143.5513  169.7905 C.3     1  UNL1        0.4186
     28 F         140.7035  144.8828  170.2682 F       1  UNL1       -0.1659
     29 F         142.4936  143.7732  170.5212 F       1  UNL1       -0.1659
     30 F         139.9114  143.3295  169.0599 F       1  UNL1       -0.1659
@<TRIPOS>BOND
     1    18    19    1
     2    19    20    1
     3    19    15    1
     4    15    16    2
     5    15    17    2
     6    15    13    1
     7     7    13    1
     8     7     8    1
     9     8     9    1
    10     9    10    1
    11     9    11    1
    12    11    12    1
    13    12     1    1
    14     1     2   ar
    15     2     3   ar
    16     3     4   ar
    17     4    21    1
    18    21    22   ar
    19    22    23   ar
    20    23    24   ar
    21    24    25   ar
    22    25    27    1
    23    27    28    1
    24    27    29    1
    25    27    30    1
    26    25    26   ar
    27     4     5   ar
    28     5     6   ar
    29    12     7    1
    30     6     1   ar
    31    26    21   ar
    32    13    14    1
@<TRIPOS>MOLECULE
*****
 30 32 0 0 0
SMALL
GASTEIGER

@<TRIPOS>ATOM
      1 C         140.4977  141.0321  162.7990 C.ar    1  UNL1       -0.0197
      2 C         141.4210  142.1884  163.0449 C.ar    1  UNL1       -0.0042
      3 C         141.8123  142.5507  164.4469 C.ar    1  UNL1       -0.0003
      4 C         141.2802  141.7567  165.6030 C.ar    1  UNL1       -0.0000
      5 C         140.3568  140.6005  165.3570 C.ar    1  UNL1       -0.0003
      6 C         139.9656  140.2382  163.9551 C.ar    1  UNL1       -0.0042
      7 C         138.8126  141.0206  160.7240 C.3     1  UNL1        0.0964
      8 C         138.8468  140.4606  159.3329 C.3     1  UNL1        0.0901
      9 N         140.1619  139.7637  159.1460 N.3     1  UNL1       -0.2700
     10 C         140.6184  139.0609  157.9019 C.3     1  UNL1        0.0897
     11 C         140.9404  139.8930  160.4216 C.3     1  UNL1        0.0780
     12 C         140.1064  140.6698  161.3969 C.3     1  UNL1        0.0557
     13 N         137.6827  141.7953  161.3350 N.3     1  UNL1       -0.1830
     14 H         137.1219  142.1561  160.5631 H       1  UNL1        0.1484
     15 S         137.9721  142.9563  162.2396 S.O2    1  UNL1        0.0390
     16 O         138.6963  143.6466  161.1220 O.2     1  UNL1       -0.1576
     17 O         137.2480  142.2660  163.3571 O.2     1  UNL1       -0.1576
     18 C         139.0186  145.3030  162.6237 C.3     1  UNL1        0.0270
     19 C         138.2616  144.1173  163.1442 C.3     1  UNL1        0.1457
     20 C         137.7940  144.0926  164.5692 C.3     1  UNL1        0.0270
     21 C         141.6714  142.1191  167.0050 C.ar    1  UNL1       -0.0001
     22 C         143.1111  142.0574  167.4216 C.ar    1  UNL1       -0.0000
     23 C         143.5024  142.4198  168.8236 C.ar    1  UNL1       -0.0001
     24 C         142.4539  142.8438  169.8091 C.ar    1  UNL1        0.0039
     25 C         141.0142  142.9054  169.3924 C.ar    1  UNL1        0.0714
     26 C         140.6230  142.5431  167.9904 C.ar    1  UNL1        0.0039
     27 C         139.9658  143.3294  170.3778 C.3     1  UNL1        0.4186
     28 F         138.9174  143.7534  171.3632 F       1  UNL1       -0.1659
     29 F         139.6173  141.8917  170.6256 F       1  UNL1       -0.1659
     30 F         140.3143  144.7672  170.1300 F       1  UNL1       -0.1659
@<TRIPOS>BOND
     1    18    19    1
     2    19    20    1
     3    19    15    1
     4    15    16    2
     5    15    17    2
     6    15    13    1
     7     7    13    1
     8     7     8    1
     9     8     9    1
    10     9    10    1
    11     9    11    1
    12    11    12    1
    13    12     1    1
    14     1     2   ar
    15     2     3   ar
    16     3     4   ar
    17     4    21    1
    18    21    22   ar
    19    22    23   ar
    20    23    24   ar
    21    24    25   ar
    22    25    27    1
    23    27    28    1
    24    27    29    1
    25    27    30    1
    26    25    26   ar
    27     4     5   ar
    28     5     6   ar
    29    12     7    1
    30     6     1   ar
    31    26    21   ar
    32    13    14    1
@<TRIPOS>MOLECULE
*****
 30 32 0 0 0
SMALL
GASTEIGER

@<TRIPOS>ATOM
      1 C         140.6436  143.3096  162.8971 C.ar    1  UNL1       -0.0197
      2 C         141.4234  142.1226  163.3797 C.ar    1  UNL1       -0.0042
      3 C         141.4648  141.7973  164.8434 C.ar    1  UNL1       -0.0003
      4 C         140.7264  142.6589  165.8244 C.ar    1  UNL1       -0.0000
      5 C         139.9466  143.8459  165.3417 C.ar    1  UNL1       -0.0003
      6 C         139.9052  144.1712  163.8781 C.ar    1  UNL1       -0.0042
      7 C         139.4359  143.4199  160.5149 C.3     1  UNL1        0.0964
      8 C         139.8327  143.8846  159.1451 C.3     1  UNL1        0.0901
      9 N         141.2444  144.3869  159.2168 N.3     1  UNL1       -0.2700
     10 C         142.0406  144.9453  158.0748 C.3     1  UNL1        0.0897
     11 C         141.7199  144.2326  160.6310 C.3     1  UNL1        0.0780
     12 C         140.6022  143.6350  161.4333 C.3     1  UNL1        0.0557
     13 N         138.1062  142.8417  160.8990 N.3     1  UNL1       -0.1830
     14 H         137.6074  143.5672  161.4142 H       1  UNL1        0.1484
     15 S         138.0423  141.5967  161.7331 S.O2    1  UNL1        0.0390
     16 O         137.2057  142.3191  162.7472 O.2     1  UNL1       -0.1576
     17 O         138.8788  140.8744  160.7190 O.2     1  UNL1       -0.1576
     18 C         137.8262  139.0135  161.9069 C.3     1  UNL1        0.0270
     19 C         137.9783  140.3517  162.5672 C.3     1  UNL1        0.1457
     20 C         138.0666  140.4449  164.0617 C.3     1  UNL1        0.0270
     21 C         140.7678  142.3335  167.2881 C.ar    1  UNL1       -0.0001
     22 C         140.2287  143.3116  168.2894 C.ar    1  UNL1       -0.0000
     23 C         140.2701  142.9862  169.7532 C.ar    1  UNL1       -0.0001
     24 C         140.8507  141.6827  170.2155 C.ar    1  UNL1        0.0039
     25 C         141.3898  140.7046  169.2142 C.ar    1  UNL1        0.0714
     26 C         141.3484  141.0300  167.7505 C.ar    1  UNL1        0.0039
     27 C         141.9704  139.4010  169.6765 C.3     1  UNL1        0.4186
     28 F         142.5509  138.0975  170.1389 F       1  UNL1       -0.1659
     29 F         143.0408  139.5069  168.6310 F       1  UNL1       -0.1659
     30 F         140.9000  139.2952  170.7220 F       1  UNL1       -0.1659
@<TRIPOS>BOND
     1    18    19    1
     2    19    20    1
     3    19    15    1
     4    15    16    2
     5    15    17    2
     6    15    13    1
     7     7    13    1
     8     7     8    1
     9     8     9    1
    10     9    10    1
    11     9    11    1
    12    11    12    1
    13    12     1    1
    14     1     2   ar
    15     2     3   ar
    16     3     4   ar
    17     4    21    1
    18    21    22   ar
    19    22    23   ar
    20    23    24   ar
    21    24    25   ar
    22    25    27    1
    23    27    28    1
    24    27    29    1
    25    27    30    1
    26    25    26   ar
    27     4     5   ar
    28     5     6   ar
    29    12     7    1
    30     6     1   ar
    31    26    21   ar
    32    13    14    1
@<TRIPOS>MOLECULE
*****
 30 32 0 0 0
SMALL
GASTEIGER

@<TRIPOS>ATOM
      1 C         141.3503  142.4913  162.4353 C.ar    1  UNL1       -0.0197
      2 C         142.3730  143.2502  163.2279 C.ar    1  UNL1       -0.0042
      3 C         142.6864  142.8395  164.6361 C.ar    1  UNL1       -0.0003
      4 C         141.9772  141.6699  165.2517 C.ar    1  UNL1       -0.0000
      5 C         140.9545  140.9110  164.4592 C.ar    1  UNL1       -0.0003
      6 C         140.6411  141.3217  163.0510 C.ar    1  UNL1       -0.0042
      7 C         140.1778  144.0613  160.6172 C.3     1  UNL1        0.0964
      8 C         140.1374  144.1012  159.1183 C.3     1  UNL1        0.0901
      9 N         140.9715  142.9665  158.6017 N.3     1  UNL1       -0.2700
     10 C         141.2082  142.6318  157.1589 C.3     1  UNL1        0.0897
     11 C         141.5274  142.2254  159.7814 C.3     1  UNL1        0.0780
     12 C         141.0368  142.9020  161.0271 C.3     1  UNL1        0.0557
     13 N         139.4813  145.0135  161.5436 N.3     1  UNL1       -0.1830
     14 H         140.1656  145.7232  161.8053 H       1  UNL1        0.1484
     15 S         138.8715  144.5094  162.8178 S.O2    1  UNL1        0.0390
     16 O         139.8360  145.3423  163.6090 O.2     1  UNL1       -0.1576
     17 O         137.9069  143.6765  162.0268 O.2     1  UNL1       -0.1576
     18 C         137.4493  142.7443  164.0875 C.3     1  UNL1        0.0270
     19 C         138.2617  144.0053  164.0922 C.3     1  UNL1        0.1457
     20 C         138.4642  144.7622  165.3713 C.3     1  UNL1        0.0270
     21 C         142.2907  141.2593  166.6600 C.ar    1  UNL1       -0.0001
     22 C         142.2571  139.8096  167.0436 C.ar    1  UNL1       -0.0000
     23 C         142.5706  139.3989  168.4519 C.ar    1  UNL1       -0.0001
     24 C         142.9176  140.4380  169.4765 C.ar    1  UNL1        0.0039
     25 C         142.9512  141.8878  169.0928 C.ar    1  UNL1        0.0714
     26 C         142.6377  142.2984  167.6846 C.ar    1  UNL1        0.0039
     27 C         143.2982  142.9269  170.1174 C.3     1  UNL1        0.4186
     28 F         143.6452  143.9660  171.1420 F       1  UNL1       -0.1659
     29 F         144.7358  142.5025  170.0609 F       1  UNL1       -0.1659
     30 F         141.8606  143.3513  170.1739 F       1  UNL1       -0.1659
@<TRIPOS>BOND
     1    18    19    1
     2    19    20    1
     3    19    15    1
     4    15    16    2
     5    15    17    2
     6    15    13    1
     7     7    13    1
     8     7     8    1
     9     8     9    1
    10     9    10    1
    11     9    11    1
    12    11    12    1
    13    12     1    1
    14     1     2   ar
    15     2     3   ar
    16     3     4   ar
    17     4    21    1
    18    21    22   ar
    19    22    23   ar
    20    23    24   ar
    21    24    25   ar
    22    25    27    1
    23    27    28    1
    24    27    29    1
    25    27    30    1
    26    25    26   ar
    27     4     5   ar
    28     5     6   ar
    29    12     7    1
    30     6     1   ar
    31    26    21   ar
    32    13    14    1
@<TRIPOS>MOLECULE
*****
 30 32 0 0 0
SMALL
GASTEIGER

@<TRIPOS>ATOM
      1 C         140.0233  141.0464  162.6021 C.ar    1  UNL1       -0.0197
      2 C         139.0512  141.1164  163.7423 C.ar    1  UNL1       -0.0042
      3 C         139.5353  141.4571  165.1206 C.ar    1  UNL1       -0.0003
      4 C         140.9913  141.7276  165.3586 C.ar    1  UNL1       -0.0000
      5 C         141.9634  141.6576  164.2183 C.ar    1  UNL1       -0.0003
      6 C         141.4793  141.3170  162.8401 C.ar    1  UNL1       -0.0042
      7 C         139.6870  139.3787  160.5403 C.3     1  UNL1        0.0964
      8 C         139.0615  139.4852  159.1810 C.3     1  UNL1        0.0901
      9 N         138.5272  140.8781  159.0244 N.3     1  UNL1       -0.2700
     10 C         137.8216  141.4212  157.8173 C.3     1  UNL1        0.0897
     11 C         138.8225  141.6324  160.2869 C.3     1  UNL1        0.0780
     12 C         139.5392  140.7057  161.2237 C.3     1  UNL1        0.0557
     13 N         140.3447  138.1593  161.1151 N.3     1  UNL1       -0.1830
     14 H         139.9167  137.3523  160.6611 H       1  UNL1        0.1484
     15 S         140.2912  137.9040  162.5922 S.O2    1  UNL1        0.0390
     16 O         141.7838  138.0315  162.6682 O.2     1  UNL1       -0.1576
     17 O         138.7986  137.7765  162.5162 O.2     1  UNL1       -0.1576
     18 C         141.5093  137.5057  164.8521 C.3     1  UNL1        0.0270
     19 C         140.2378  137.6487  164.0693 C.3     1  UNL1        0.1457
     20 C         138.9129  137.5365  164.7636 C.3     1  UNL1        0.0270
     21 C         141.4754  142.0683  166.7369 C.ar    1  UNL1       -0.0001
     22 C         142.9404  142.0093  167.0532 C.ar    1  UNL1       -0.0000
     23 C         143.4245  142.3500  168.4316 C.ar    1  UNL1       -0.0001
     24 C         142.4434  142.7496  169.4935 C.ar    1  UNL1        0.0039
     25 C         140.9782  142.8085  169.1772 C.ar    1  UNL1        0.0714
     26 C         140.4943  142.4679  167.7989 C.ar    1  UNL1        0.0039
     27 C         139.9971  143.2081  170.2391 C.3     1  UNL1        0.4186
     28 F         139.0160  143.6077  171.3011 F       1  UNL1       -0.1659
     29 F         140.3842  144.6457  170.0558 F       1  UNL1       -0.1659
     30 F         139.6101  141.7705  170.4225 F       1  UNL1       -0.1659
@<TRIPOS>BOND
     1    18    19    1
     2    19    20    1
     3    19    15    1
     4    15    16    2
     5    15    17    2
     6    15    13    1
     7     7    13    1
     8     7     8    1
     9     8     9    1
    10     9    10    1
    11     9    11    1
    12    11    12    1
    13    12     1    1
    14     1     2   ar
    15     2     3   ar
    16     3     4   ar
    17     4    21    1
    18    21    22   ar
    19    22    23   ar
    20    23    24   ar
    21    24    25   ar
    22    25    27    1
    23    27    28    1
    24    27    29    1
    25    27    30    1
    26    25    26   ar
    27     4     5   ar
    28     5     6   ar
    29    12     7    1
    30     6     1   ar
    31    26    21   ar
    32    13    14    1
@<TRIPOS>MOLECULE
*****
 30 32 0 0 0
SMALL
GASTEIGER

@<TRIPOS>ATOM
      1 C         139.2114  140.8762  162.9676 C.ar    1  UNL1       -0.0197
      2 C         140.5632  141.3068  163.4546 C.ar    1  UNL1       -0.0042
      3 C         140.8610  141.3216  164.9247 C.ar    1  UNL1       -0.0003
      4 C         139.8070  140.9059  165.9077 C.ar    1  UNL1       -0.0000
      5 C         138.4553  140.4753  165.4206 C.ar    1  UNL1       -0.0003
      6 C         138.1574  140.4605  163.9506 C.ar    1  UNL1       -0.0042
      7 C         138.9103  139.6516  160.6107 C.3     1  UNL1        0.0964
      8 C         138.5614  140.0962  159.2213 C.3     1  UNL1        0.0901
      9 N         138.3490  141.5809  159.2493 N.3     1  UNL1       -0.2700
     10 C         137.9831  142.4415  158.0765 C.3     1  UNL1        0.0897
     11 C         138.5666  142.0537  160.6561 C.3     1  UNL1        0.0780
     12 C         138.9136  140.8614  161.4975 C.3     1  UNL1        0.0557
     13 N         139.2044  138.2442  161.0382 N.3     1  UNL1       -0.1830
     14 H         138.3560  137.8864  161.4770 H       1  UNL1        0.1484
     15 S         140.3322  137.9690  161.9881 S.O2    1  UNL1        0.0390
     16 O         139.3566  137.4226  162.9880 O.2     1  UNL1       -0.1576
     17 O         141.3077  138.5152  160.9883 O.2     1  UNL1       -0.1576
     18 C         141.1783  137.0874  164.2809 C.3     1  UNL1        0.0270
     19 C         141.4599  137.6937  162.9381 C.3     1  UNL1        0.1457
     20 C         142.8692  138.0246  162.5452 C.3     1  UNL1        0.0270
     21 C         140.1049  140.9207  167.3778 C.ar    1  UNL1       -0.0001
     22 C         139.2259  140.1638  168.3288 C.ar    1  UNL1       -0.0000
     23 C         139.5238  140.1787  169.7989 C.ar    1  UNL1       -0.0001
     24 C         140.7007  140.9505  170.3179 C.ar    1  UNL1        0.0039
     25 C         141.5796  141.7074  169.3668 C.ar    1  UNL1        0.0714
     26 C         141.2817  141.6925  167.8968 C.ar    1  UNL1        0.0039
     27 C         142.7565  142.4792  169.8858 C.3     1  UNL1        0.4186
     28 F         143.9333  143.2510  170.4048 F       1  UNL1       -0.1659
     29 F         143.6285  141.2724  169.7032 F       1  UNL1       -0.1659
     30 F         141.8845  143.6860  170.0684 F       1  UNL1       -0.1659
@<TRIPOS>BOND
     1    18    19    1
     2    19    20    1
     3    19    15    1
     4    15    16    2
     5    15    17    2
     6    15    13    1
     7     7    13    1
     8     7     8    1
     9     8     9    1
    10     9    10    1
    11     9    11    1
    12    11    12    1
    13    12     1    1
    14     1     2   ar
    15     2     3   ar
    16     3     4   ar
    17     4    21    1
    18    21    22   ar
    19    22    23   ar
    20    23    24   ar
    21    24    25   ar
    22    25    27    1
    23    27    28    1
    24    27    29    1
    25    27    30    1
    26    25    26   ar
    27     4     5   ar
    28     5     6   ar
    29    12     7    1
    30     6     1   ar
    31    26    21   ar
    32    13    14    1
