@<TRIPOS>MOLECULE
*****
 35 40 0 0 0
SMALL
GASTEIGER

@<TRIPOS>ATOM
      1 S         138.8893  142.8757  158.6674 S.3     1  UNL1       -0.0756
      2 C         139.0044  140.8269  161.9621 C.ar    1  UNL1        0.1669
      3 N         138.0006  141.8847  162.3135 N.ar    1  UNL1       -0.1282
      4 N         137.8353  142.7809  161.1221 N.ar    1  UNL1       -0.1221
      5 C         138.7369  142.2770  160.0343 C.ar    1  UNL1        0.1932
      6 N         139.4595  141.0693  160.5535 N.ar    1  UNL1       -0.2884
      7 C         140.4612  140.2483  159.7970 C.3     1  UNL1        0.1340
      8 C         145.2581  139.3464  164.4013 C.3     1  UNL1        0.0521
      9 C         143.8114  139.4400  164.0163 C.ar    1  UNL1        0.0593
     10 C         143.3446  140.5460  163.1170 C.ar    1  UNL1        0.0147
     11 C         141.8979  140.6396  162.7321 C.ar    1  UNL1        0.0028
     12 C         140.9179  139.6272  163.2464 C.ar    1  UNL1        0.0206
     13 C         139.4712  139.7208  162.8615 C.ar    1  UNL1        0.0374
     14 C         138.4912  138.7084  163.3758 C.ar    1  UNL1        0.0031
     15 C         138.9579  137.6023  164.2752 C.ar    1  UNL1        0.0016
     16 C         140.4046  137.5087  164.6601 C.ar    1  UNL1        0.0191
     17 C         141.3846  138.5212  164.1457 C.ar    1  UNL1        0.0810
     18 N         142.8314  138.4276  164.5307 N.ar    1  UNL1       -0.2497
     19 C         139.9862  143.8629  158.3991 C.3     1  UNL1        0.0666
     20 C         141.2219  143.8605  159.2494 C.3     1  UNL1        0.0294
     21 C         141.4349  144.9428  160.2658 C.3     1  UNL1        0.0730
     22 N         140.7116  144.8913  161.5790 N.3     1  UNL1       -0.2724
     23 C         139.5201  145.7180  161.9622 C.3     1  UNL1        0.0724
     24 C         139.1249  145.3418  163.3594 C.3     1  UNL1        0.0214
     25 C         138.9723  144.7677  164.7368 C.3     1  UNL1        0.0072
     26 C         140.0723  144.2827  163.8398 C.3     1  UNL1        0.0350
     27 C         141.0530  144.0043  162.7394 C.3     1  UNL1        0.0761
     28 C         140.6436  143.2942  164.8127 C.ar    1  UNL1       -0.0214
     29 C         142.1119  143.3064  165.1193 C.ar    1  UNL1       -0.0036
     30 C         142.6832  142.3179  166.0922 C.ar    1  UNL1        0.0100
     31 C         141.7862  141.3172  166.7586 C.ar    1  UNL1        0.0684
     32 C         140.3179  141.3051  166.4520 C.ar    1  UNL1        0.0100
     33 C         139.7466  142.2935  165.4791 C.ar    1  UNL1       -0.0036
     34 C         142.3575  140.3288  167.7315 C.1     1  UNL1        0.1004
     35 N         142.9288  139.3403  168.7044 N.1     1  UNL1       -0.1908
@<TRIPOS>BOND
     1     8     9    1
     2     9    10   ar
     3    10    11   ar
     4    11    12   ar
     5    12    13   ar
     6    13     2    1
     7     2     3   ar
     8     3     4   ar
     9     4     5   ar
    10     5     1    1
    11     1    19    1
    12    19    20    1
    13    20    21    1
    14    21    22    1
    15    22    23    1
    16    23    24    1
    17    24    25    1
    18    25    26    1
    19    26    28    1
    20    28    29   ar
    21    29    30   ar
    22    30    31   ar
    23    31    34    1
    24    34    35    3
    25    31    32   ar
    26    32    33   ar
    27    26    27    1
    28     5     6   ar
    29     6     7    1
    30    13    14   ar
    31    14    15   ar
    32    15    16   ar
    33    16    17   ar
    34    17    18   ar
    35    18     9   ar
    36    17    12   ar
    37     6     2   ar
    38    27    22    1
    39    26    24    1
    40    33    28   ar
@<TRIPOS>MOLECULE
*****
 35 40 0 0 0
SMALL
GASTEIGER

@<TRIPOS>ATOM
      1 S         140.7780  145.2504  160.3853 S.3     1  UNL1       -0.0756
      2 C         140.6992  143.7726  163.9736 C.ar    1  UNL1        0.1669
      3 N         139.5603  144.7469  164.0362 N.ar    1  UNL1       -0.1282
      4 N         139.4512  145.4190  162.6997 N.ar    1  UNL1       -0.1221
      5 C         140.5227  144.8602  161.8109 C.ar    1  UNL1        0.1932
      6 N         141.2940  143.8426  162.5983 N.ar    1  UNL1       -0.2884
      7 C         142.4560  143.0367  162.0981 C.3     1  UNL1        0.1340
      8 C         137.6343  138.4444  167.0504 C.3     1  UNL1        0.0521
      9 C         138.5162  139.5544  166.5604 C.ar    1  UNL1        0.0593
     10 C         138.0534  140.4427  165.4438 C.ar    1  UNL1        0.0147
     11 C         138.9354  141.5527  164.9537 C.ar    1  UNL1        0.0028
     12 C         140.2801  141.7743  165.5802 C.ar    1  UNL1        0.0206
     13 C         141.1620  142.8843  165.0901 C.ar    1  UNL1        0.0374
     14 C         142.5068  143.1060  165.7166 C.ar    1  UNL1        0.0031
     15 C         142.9696  142.2177  166.8332 C.ar    1  UNL1        0.0016
     16 C         142.0877  141.1077  167.3233 C.ar    1  UNL1        0.0191
     17 C         140.7429  140.8861  166.6967 C.ar    1  UNL1        0.0810
     18 N         139.8610  139.7761  167.1868 N.ar    1  UNL1       -0.2497
     19 C         140.1375  144.4782  159.2702 C.3     1  UNL1        0.0666
     20 C         139.9325  142.9983  159.4039 C.3     1  UNL1        0.0294
     21 C         138.6196  142.4645  159.8952 C.3     1  UNL1        0.0730
     22 N         138.5478  141.0967  160.5071 N.3     1  UNL1       -0.2724
     23 C         137.5164  140.0498  160.2072 C.3     1  UNL1        0.0724
     24 C         137.8260  138.8419  161.0410 C.3     1  UNL1        0.0214
     25 C         138.3751  137.8078  161.9785 C.3     1  UNL1        0.0072
     26 C         139.0487  139.1424  161.8562 C.3     1  UNL1        0.0350
     27 C         139.4949  140.5360  161.5262 C.3     1  UNL1        0.0761
     28 C         140.1365  138.8607  162.8498 C.ar    1  UNL1       -0.0214
     29 C         139.9845  137.7349  163.8293 C.ar    1  UNL1       -0.0036
     30 C         141.0724  137.4532  164.8229 C.ar    1  UNL1        0.0100
     31 C         142.3123  138.2972  164.8370 C.ar    1  UNL1        0.0684
     32 C         142.4643  139.4230  163.8575 C.ar    1  UNL1        0.0100
     33 C         141.3764  139.7048  162.8639 C.ar    1  UNL1       -0.0036
     34 C         143.4001  138.0155  165.8306 C.1     1  UNL1        0.1004
     35 N         144.4879  137.7338  166.8242 N.1     1  UNL1       -0.1908
@<TRIPOS>BOND
     1     8     9    1
     2     9    10   ar
     3    10    11   ar
     4    11    12   ar
     5    12    13   ar
     6    13     2    1
     7     2     3   ar
     8     3     4   ar
     9     4     5   ar
    10     5     1    1
    11     1    19    1
    12    19    20    1
    13    20    21    1
    14    21    22    1
    15    22    23    1
    16    23    24    1
    17    24    25    1
    18    25    26    1
    19    26    28    1
    20    28    29   ar
    21    29    30   ar
    22    30    31   ar
    23    31    34    1
    24    34    35    3
    25    31    32   ar
    26    32    33   ar
    27    26    27    1
    28     5     6   ar
    29     6     7    1
    30    13    14   ar
    31    14    15   ar
    32    15    16   ar
    33    16    17   ar
    34    17    18   ar
    35    18     9   ar
    36    17    12   ar
    37     6     2   ar
    38    27    22    1
    39    26    24    1
    40    33    28   ar
@<TRIPOS>MOLECULE
*****
 35 40 0 0 0
SMALL
GASTEIGER

@<TRIPOS>ATOM
      1 S         140.4978  145.4010  162.6695 S.3     1  UNL1       -0.0756
      2 C         141.1517  143.0912  165.7196 C.ar    1  UNL1        0.1669
      3 N         142.4263  142.9197  164.9475 N.ar    1  UNL1       -0.1282
      4 N         142.3365  143.7640  163.7110 N.ar    1  UNL1       -0.1221
      5 C         141.0064  144.4575  163.7188 C.ar    1  UNL1        0.1932
      6 N         140.2741  144.0416  164.9602 N.ar    1  UNL1       -0.2884
      7 C         138.9048  144.4963  165.3702 C.3     1  UNL1        0.1340
      8 C         137.1908  137.6470  167.1056 C.3     1  UNL1        0.0521
      9 C         138.0966  138.8424  167.0848 C.ar    1  UNL1        0.0593
     10 C         138.4343  139.5049  165.7821 C.ar    1  UNL1        0.0147
     11 C         139.3401  140.7004  165.7613 C.ar    1  UNL1        0.0028
     12 C         139.9082  141.2333  167.0431 C.ar    1  UNL1        0.0206
     13 C         140.8140  142.4287  167.0223 C.ar    1  UNL1        0.0374
     14 C         141.3821  142.9617  168.3042 C.ar    1  UNL1        0.0031
     15 C         141.0444  142.2992  169.6069 C.ar    1  UNL1        0.0016
     16 C         140.1386  141.1037  169.6278 C.ar    1  UNL1        0.0191
     17 C         139.5705  140.5708  168.3458 C.ar    1  UNL1        0.0810
     18 N         138.6647  139.3754  168.3666 N.ar    1  UNL1       -0.2497
     19 C         139.6272  144.8901  161.5600 C.3     1  UNL1        0.0666
     20 C         140.1263  143.8030  160.6550 C.3     1  UNL1        0.0294
     21 C         139.1540  142.8684  159.9984 C.3     1  UNL1        0.0730
     22 N         139.0867  141.4328  160.4281 N.3     1  UNL1       -0.2724
     23 C         138.1815  140.3827  159.8555 C.3     1  UNL1        0.0724
     24 C         138.4481  139.0962  160.5793 C.3     1  UNL1        0.0214
     25 C         138.9248  137.9804  161.4613 C.3     1  UNL1        0.0072
     26 C         139.5181  139.3512  161.5991 C.3     1  UNL1        0.0350
     27 C         139.9128  140.7953  161.5056 C.3     1  UNL1        0.0761
     28 C         140.4683  139.0003  162.7054 C.ar    1  UNL1       -0.0214
     29 C         141.5497  139.9624  163.0988 C.ar    1  UNL1       -0.0036
     30 C         142.4998  139.6115  164.2052 C.ar    1  UNL1        0.0100
     31 C         142.3686  138.2984  164.9182 C.ar    1  UNL1        0.0684
     32 C         141.2872  137.3362  164.5248 C.ar    1  UNL1        0.0100
     33 C         140.3371  137.6871  163.4185 C.ar    1  UNL1       -0.0036
     34 C         143.3188  137.9475  166.0246 C.1     1  UNL1        0.1004
     35 N         144.2689  137.5966  167.1309 N.1     1  UNL1       -0.1908
@<TRIPOS>BOND
     1     8     9    1
     2     9    10   ar
     3    10    11   ar
     4    11    12   ar
     5    12    13   ar
     6    13     2    1
     7     2     3   ar
     8     3     4   ar
     9     4     5   ar
    10     5     1    1
    11     1    19    1
    12    19    20    1
    13    20    21    1
    14    21    22    1
    15    22    23    1
    16    23    24    1
    17    24    25    1
    18    25    26    1
    19    26    28    1
    20    28    29   ar
    21    29    30   ar
    22    30    31   ar
    23    31    34    1
    24    34    35    3
    25    31    32   ar
    26    32    33   ar
    27    26    27    1
    28     5     6   ar
    29     6     7    1
    30    13    14   ar
    31    14    15   ar
    32    15    16   ar
    33    16    17   ar
    34    17    18   ar
    35    18     9   ar
    36    17    12   ar
    37     6     2   ar
    38    27    22    1
    39    26    24    1
    40    33    28   ar
@<TRIPOS>MOLECULE
*****
 35 40 0 0 0
SMALL
GASTEIGER

@<TRIPOS>ATOM
      1 S         139.0379  142.5805  158.7142 S.3     1  UNL1       -0.0756
      2 C         142.0150  142.7767  161.1970 C.ar    1  UNL1        0.1669
      3 N         142.7014  142.2775  159.9602 N.ar    1  UNL1       -0.1282
      4 N         141.6698  142.1433  158.8796 N.ar    1  UNL1       -0.1221
      5 C         140.3457  142.5595  159.4485 C.ar    1  UNL1        0.1932
      6 N         140.5591  142.9510  160.8808 N.ar    1  UNL1       -0.2884
      7 C         139.5021  143.4322  161.8301 C.3     1  UNL1        0.1340
      8 C         143.3791  138.6216  166.5002 C.3     1  UNL1        0.0521
      9 C         143.2017  139.7295  165.5047 C.ar    1  UNL1        0.0593
     10 C         142.5472  139.4531  164.1837 C.ar    1  UNL1        0.0147
     11 C         142.3698  140.5609  163.1881 C.ar    1  UNL1        0.0028
     12 C         142.8469  141.9452  163.5136 C.ar    1  UNL1        0.0206
     13 C         142.6696  143.0531  162.5180 C.ar    1  UNL1        0.0374
     14 C         143.1467  144.4374  162.8435 C.ar    1  UNL1        0.0031
     15 C         143.8013  144.7139  164.1646 C.ar    1  UNL1        0.0016
     16 C         143.9787  143.6060  165.1601 C.ar    1  UNL1        0.0191
     17 C         143.5015  142.2216  164.8346 C.ar    1  UNL1        0.0810
     18 N         143.6789  141.1137  165.8301 N.ar    1  UNL1       -0.2497
     19 C         138.2242  141.3260  158.5956 C.3     1  UNL1        0.0666
     20 C         138.3157  140.2696  159.6565 C.3     1  UNL1        0.0294
     21 C         137.6418  140.4761  160.9806 C.3     1  UNL1        0.0730
     22 N         138.1345  139.7462  162.1949 N.3     1  UNL1       -0.2724
     23 C         138.2385  138.2575  162.3470 C.3     1  UNL1        0.0724
     24 C         138.7780  137.9681  163.7163 C.3     1  UNL1        0.0214
     25 C         139.3195  137.9908  165.1150 C.3     1  UNL1        0.0072
     26 C         139.0075  139.2778  164.4105 C.3     1  UNL1        0.0350
     27 C         138.6098  140.3767  163.4703 C.3     1  UNL1        0.0761
     28 C         139.4175  140.1774  165.5386 C.ar    1  UNL1       -0.0214
     29 C         139.6737  141.6329  165.2821 C.ar    1  UNL1       -0.0036
     30 C         140.0837  142.5325  166.4102 C.ar    1  UNL1        0.0100
     31 C         140.2376  141.9766  167.7948 C.ar    1  UNL1        0.0684
     32 C         139.9813  140.5211  168.0514 C.ar    1  UNL1        0.0100
     33 C         139.5713  139.6215  166.9233 C.ar    1  UNL1       -0.0036
     34 C         140.6476  142.8762  168.9229 C.1     1  UNL1        0.1004
     35 N         141.0576  143.7759  170.0510 N.1     1  UNL1       -0.1908
@<TRIPOS>BOND
     1     8     9    1
     2     9    10   ar
     3    10    11   ar
     4    11    12   ar
     5    12    13   ar
     6    13     2    1
     7     2     3   ar
     8     3     4   ar
     9     4     5   ar
    10     5     1    1
    11     1    19    1
    12    19    20    1
    13    20    21    1
    14    21    22    1
    15    22    23    1
    16    23    24    1
    17    24    25    1
    18    25    26    1
    19    26    28    1
    20    28    29   ar
    21    29    30   ar
    22    30    31   ar
    23    31    34    1
    24    34    35    3
    25    31    32   ar
    26    32    33   ar
    27    26    27    1
    28     5     6   ar
    29     6     7    1
    30    13    14   ar
    31    14    15   ar
    32    15    16   ar
    33    16    17   ar
    34    17    18   ar
    35    18     9   ar
    36    17    12   ar
    37     6     2   ar
    38    27    22    1
    39    26    24    1
    40    33    28   ar
@<TRIPOS>MOLECULE
*****
 35 40 0 0 0
SMALL
GASTEIGER

@<TRIPOS>ATOM
      1 S         137.9992  140.7644  158.0173 S.3     1  UNL1       -0.0756
      2 C         138.8600  142.9980  161.0727 C.ar    1  UNL1        0.1669
      3 N         139.2355  143.9032  159.9370 N.ar    1  UNL1       -0.1282
      4 N         138.9588  143.1766  158.6542 N.ar    1  UNL1       -0.1221
      5 C         138.4122  141.8224  158.9971 C.ar    1  UNL1        0.1932
      6 N         138.3512  141.7121  160.4919 N.ar    1  UNL1       -0.2884
      7 C         137.8664  140.5243  161.2692 C.3     1  UNL1        0.1340
      8 C         144.1841  142.5013  165.3921 C.3     1  UNL1        0.0521
      9 C         142.8814  142.7065  164.6773 C.ar    1  UNL1        0.0593
     10 C         142.7680  142.3825  163.2172 C.ar    1  UNL1        0.0147
     11 C         141.4653  142.5877  162.5024 C.ar    1  UNL1        0.0028
     12 C         140.2761  143.1169  163.2477 C.ar    1  UNL1        0.0206
     13 C         138.9734  143.3220  162.5329 C.ar    1  UNL1        0.0374
     14 C         137.7842  143.8512  163.2783 C.ar    1  UNL1        0.0031
     15 C         137.8975  144.1752  164.7385 C.ar    1  UNL1        0.0016
     16 C         139.2002  143.9701  165.4533 C.ar    1  UNL1        0.0191
     17 C         140.3895  143.4409  164.7079 C.ar    1  UNL1        0.0810
     18 N         141.6922  143.2357  165.4227 N.ar    1  UNL1       -0.2497
     19 C         139.0346  139.8812  157.3864 C.3     1  UNL1        0.0666
     20 C         139.7546  138.8593  158.2154 C.3     1  UNL1        0.0294
     21 C         141.2396  138.9569  158.4028 C.3     1  UNL1        0.0730
     22 N         141.8262  138.9089  159.7826 N.3     1  UNL1       -0.2724
     23 C         143.2841  138.9965  160.1243 C.3     1  UNL1        0.0724
     24 C         143.4169  138.9066  161.6157 C.3     1  UNL1        0.0214
     25 C         143.2369  138.7936  163.1006 C.3     1  UNL1        0.0072
     26 C         142.0410  138.7636  162.1957 C.3     1  UNL1        0.0350
     27 C         141.0579  138.7650  161.0628 C.3     1  UNL1        0.0761
     28 C         141.0226  138.6134  163.2867 C.ar    1  UNL1       -0.0214
     29 C         139.8231  137.7374  163.0777 C.ar    1  UNL1       -0.0036
     30 C         138.8047  137.5873  164.1688 C.ar    1  UNL1        0.0100
     31 C         138.9859  138.3131  165.4689 C.ar    1  UNL1        0.0684
     32 C         140.1854  139.1891  165.6779 C.ar    1  UNL1        0.0100
     33 C         141.2038  139.3392  164.5869 C.ar    1  UNL1       -0.0036
     34 C         137.9675  138.1629  166.5599 C.1     1  UNL1        0.1004
     35 N         136.9491  138.0127  167.6510 N.1     1  UNL1       -0.1908
@<TRIPOS>BOND
     1     8     9    1
     2     9    10   ar
     3    10    11   ar
     4    11    12   ar
     5    12    13   ar
     6    13     2    1
     7     2     3   ar
     8     3     4   ar
     9     4     5   ar
    10     5     1    1
    11     1    19    1
    12    19    20    1
    13    20    21    1
    14    21    22    1
    15    22    23    1
    16    23    24    1
    17    24    25    1
    18    25    26    1
    19    26    28    1
    20    28    29   ar
    21    29    30   ar
    22    30    31   ar
    23    31    34    1
    24    34    35    3
    25    31    32   ar
    26    32    33   ar
    27    26    27    1
    28     5     6   ar
    29     6     7    1
    30    13    14   ar
    31    14    15   ar
    32    15    16   ar
    33    16    17   ar
    34    17    18   ar
    35    18     9   ar
    36    17    12   ar
    37     6     2   ar
    38    27    22    1
    39    26    24    1
    40    33    28   ar
@<TRIPOS>MOLECULE
*****
 35 40 0 0 0
SMALL
GASTEIGER

@<TRIPOS>ATOM
      1 S         142.1642  139.7953  168.6443 S.3     1  UNL1       -0.0756
      2 C         142.9791  140.6394  164.9444 C.ar    1  UNL1        0.1669
      3 N         142.5170  139.2175  164.8223 N.ar    1  UNL1       -0.1282
      4 N         142.1555  138.7283  166.1935 N.ar    1  UNL1       -0.1221
      5 C         142.3942  139.8478  167.1630 C.ar    1  UNL1        0.1932
      6 N         142.9032  141.0289  166.3910 N.ar    1  UNL1       -0.2884
      7 C         143.2716  142.3649  166.9648 C.3     1  UNL1        0.1340
      8 C         140.0417  146.1356  162.0438 C.3     1  UNL1        0.0521
      9 C         140.8905  144.9811  162.4873 C.ar    1  UNL1        0.0593
     10 C         140.4328  144.1030  163.6139 C.ar    1  UNL1        0.0147
     11 C         141.2816  142.9485  164.0574 C.ar    1  UNL1        0.0028
     12 C         142.5880  142.6720  163.3742 C.ar    1  UNL1        0.0206
     13 C         143.4368  141.5175  163.8177 C.ar    1  UNL1        0.0374
     14 C         144.7432  141.2411  163.1345 C.ar    1  UNL1        0.0031
     15 C         145.2010  142.1192  162.0078 C.ar    1  UNL1        0.0016
     16 C         144.3522  143.2738  161.5643 C.ar    1  UNL1        0.0191
     17 C         143.0457  143.5502  162.2476 C.ar    1  UNL1        0.0810
     18 N         142.1969  144.7047  161.8041 N.ar    1  UNL1       -0.2497
     19 C         140.7707  139.8928  169.1908 C.3     1  UNL1        0.0666
     20 C         139.6789  140.4961  168.3577 C.3     1  UNL1        0.0294
     21 C         138.5889  139.6258  167.8058 C.3     1  UNL1        0.0730
     22 N         138.7010  139.0747  166.4151 N.3     1  UNL1       -0.2724
     23 C         138.6967  137.6226  166.0393 C.3     1  UNL1        0.0724
     24 C         138.8300  137.5294  164.5481 C.3     1  UNL1        0.0214
     25 C         138.9703  137.7494  163.0710 C.3     1  UNL1        0.0072
     26 C         138.9166  138.9239  164.0024 C.3     1  UNL1        0.0350
     27 C         138.8369  139.8790  165.1563 C.3     1  UNL1        0.0761
     28 C         139.0413  139.9737  162.9383 C.ar    1  UNL1       -0.0214
     29 C         140.2488  140.0004  162.0489 C.ar    1  UNL1       -0.0036
     30 C         140.3735  141.0502  160.9848 C.ar    1  UNL1        0.0100
     31 C         139.2907  142.0734  160.8101 C.ar    1  UNL1        0.0684
     32 C         138.0832  142.0468  161.6996 C.ar    1  UNL1        0.0100
     33 C         137.9585  140.9970  162.7637 C.ar    1  UNL1       -0.0036
     34 C         139.4154  143.1232  159.7460 C.1     1  UNL1        0.1004
     35 N         139.5401  144.1731  158.6819 N.1     1  UNL1       -0.1908
@<TRIPOS>BOND
     1     8     9    1
     2     9    10   ar
     3    10    11   ar
     4    11    12   ar
     5    12    13   ar
     6    13     2    1
     7     2     3   ar
     8     3     4   ar
     9     4     5   ar
    10     5     1    1
    11     1    19    1
    12    19    20    1
    13    20    21    1
    14    21    22    1
    15    22    23    1
    16    23    24    1
    17    24    25    1
    18    25    26    1
    19    26    28    1
    20    28    29   ar
    21    29    30   ar
    22    30    31   ar
    23    31    34    1
    24    34    35    3
    25    31    32   ar
    26    32    33   ar
    27    26    27    1
    28     5     6   ar
    29     6     7    1
    30    13    14   ar
    31    14    15   ar
    32    15    16   ar
    33    16    17   ar
    34    17    18   ar
    35    18     9   ar
    36    17    12   ar
    37     6     2   ar
    38    27    22    1
    39    26    24    1
    40    33    28   ar
@<TRIPOS>MOLECULE
*****
 35 40 0 0 0
SMALL
GASTEIGER

@<TRIPOS>ATOM
      1 S         141.6738  138.1166  158.0287 S.3     1  UNL1       -0.0756
      2 C         139.7066  138.7806  161.3081 C.ar    1  UNL1        0.1669
      3 N         138.6624  139.0889  160.2762 N.ar    1  UNL1       -0.1282
      4 N         139.2722  138.8777  158.9222 N.ar    1  UNL1       -0.1221
      5 C         140.6933  138.4389  159.1171 C.ar    1  UNL1        0.1932
      6 N         140.9618  138.3789  160.5918 N.ar    1  UNL1       -0.2884
      7 C         142.2578  137.9861  161.2367 C.3     1  UNL1        0.1340
      8 C         139.2406  144.2078  165.5008 C.3     1  UNL1        0.0521
      9 C         139.3122  142.8709  164.8244 C.ar    1  UNL1        0.0593
     10 C         139.4918  142.7914  163.3373 C.ar    1  UNL1        0.0147
     11 C         139.5634  141.4545  162.6609 C.ar    1  UNL1        0.0028
     12 C         139.4555  140.1971  163.4716 C.ar    1  UNL1        0.0206
     13 C         139.5271  138.8601  162.7952 C.ar    1  UNL1        0.0374
     14 C         139.4192  137.6027  163.6059 C.ar    1  UNL1        0.0031
     15 C         139.2397  137.6822  165.0930 C.ar    1  UNL1        0.0016
     16 C         139.1681  139.0191  165.7694 C.ar    1  UNL1        0.0191
     17 C         139.2760  140.2766  164.9587 C.ar    1  UNL1        0.0810
     18 N         139.2043  141.6135  165.6351 N.ar    1  UNL1       -0.2497
     19 C         142.8568  139.0092  157.7965 C.3     1  UNL1        0.0666
     20 C         142.8900  140.3823  158.3993 C.3     1  UNL1        0.0294
     21 C         143.9501  140.7367  159.3996 C.3     1  UNL1        0.0730
     22 N         143.6258  141.6506  160.5442 N.3     1  UNL1       -0.2724
     23 C         143.4164  143.1333  160.4564 C.3     1  UNL1        0.0724
     24 C         143.1153  143.6412  161.8353 C.3     1  UNL1        0.0214
     25 C         142.8461  143.8483  163.2964 C.3     1  UNL1        0.0072
     26 C         143.1386  142.4725  162.7752 C.3     1  UNL1        0.0350
     27 C         143.4541  141.2422  161.9772 C.3     1  UNL1        0.0761
     28 C         143.0280  141.7764  164.0993 C.ar    1  UNL1       -0.0214
     29 C         142.8888  142.5786  165.3590 C.ar    1  UNL1       -0.0036
     30 C         142.7782  141.8826  166.6831 C.ar    1  UNL1        0.0100
     31 C         142.8068  140.3842  166.7475 C.ar    1  UNL1        0.0684
     32 C         142.9459  139.5820  165.4878 C.ar    1  UNL1        0.0100
     33 C         143.0565  140.2781  164.1636 C.ar    1  UNL1       -0.0036
     34 C         142.6962  139.6882  168.0716 C.1     1  UNL1        0.1004
     35 N         142.5856  138.9921  169.3957 N.1     1  UNL1       -0.1908
@<TRIPOS>BOND
     1     8     9    1
     2     9    10   ar
     3    10    11   ar
     4    11    12   ar
     5    12    13   ar
     6    13     2    1
     7     2     3   ar
     8     3     4   ar
     9     4     5   ar
    10     5     1    1
    11     1    19    1
    12    19    20    1
    13    20    21    1
    14    21    22    1
    15    22    23    1
    16    23    24    1
    17    24    25    1
    18    25    26    1
    19    26    28    1
    20    28    29   ar
    21    29    30   ar
    22    30    31   ar
    23    31    34    1
    24    34    35    3
    25    31    32   ar
    26    32    33   ar
    27    26    27    1
    28     5     6   ar
    29     6     7    1
    30    13    14   ar
    31    14    15   ar
    32    15    16   ar
    33    16    17   ar
    34    17    18   ar
    35    18     9   ar
    36    17    12   ar
    37     6     2   ar
    38    27    22    1
    39    26    24    1
    40    33    28   ar
@<TRIPOS>MOLECULE
*****
 35 40 0 0 0
SMALL
GASTEIGER

@<TRIPOS>ATOM
      1 S         142.3508  141.3937  158.0783 S.3     1  UNL1       -0.0756
      2 C         142.3557  139.4988  161.4658 C.ar    1  UNL1        0.1669
      3 N         141.8086  138.4474  160.5463 N.ar    1  UNL1       -0.1282
      4 N         141.7402  139.0292  159.1654 N.ar    1  UNL1       -0.1221
      5 C         142.2450  140.4403  159.2315 C.ar    1  UNL1        0.1932
      6 N         142.6254  140.7304  160.6532 N.ar    1  UNL1       -0.2884
      7 C         143.1783  142.0249  161.1713 C.3     1  UNL1        0.1340
      8 C         137.9382  138.6993  166.6712 C.3     1  UNL1        0.0521
      9 C         139.1015  138.8608  165.7382 C.ar    1  UNL1        0.0593
     10 C         138.8656  139.0142  164.2649 C.ar    1  UNL1        0.0147
     11 C         140.0290  139.1757  163.3319 C.ar    1  UNL1        0.0028
     12 C         141.4282  139.1838  163.8722 C.ar    1  UNL1        0.0206
     13 C         142.5916  139.3454  162.9391 C.ar    1  UNL1        0.0374
     14 C         143.9908  139.3535  163.4795 C.ar    1  UNL1        0.0031
     15 C         144.2268  139.2001  164.9529 C.ar    1  UNL1        0.0016
     16 C         143.0634  139.0386  165.8859 C.ar    1  UNL1        0.0191
     17 C         141.6641  139.0305  165.3455 C.ar    1  UNL1        0.0810
     18 N         140.5007  138.8689  166.2785 N.ar    1  UNL1       -0.2497
     19 C         141.3836  142.5336  157.9565 C.3     1  UNL1        0.0666
     20 C         140.1969  142.6112  158.8707 C.3     1  UNL1        0.0294
     21 C         140.1872  143.5921  160.0054 C.3     1  UNL1        0.0730
     22 N         139.5383  143.2264  161.3075 N.3     1  UNL1       -0.2724
     23 C         138.0801  142.9443  161.5173 C.3     1  UNL1        0.0724
     24 C         137.8744  142.6221  162.9677 C.3     1  UNL1        0.0214
     25 C         137.9780  142.3468  164.4386 C.3     1  UNL1        0.0072
     26 C         139.2054  142.7050  163.6543 C.3     1  UNL1        0.0350
     27 C         140.2338  143.0785  162.6282 C.3     1  UNL1        0.0761
     28 C         140.1575  142.6320  164.8111 C.ar    1  UNL1       -0.0214
     29 C         141.6349  142.7368  164.5743 C.ar    1  UNL1       -0.0036
     30 C         142.5870  142.6639  165.7311 C.ar    1  UNL1        0.0100
     31 C         142.0616  142.4860  167.1248 C.ar    1  UNL1        0.0684
     32 C         140.5842  142.3812  167.3616 C.ar    1  UNL1        0.0100
     33 C         139.6321  142.4542  166.2048 C.ar    1  UNL1       -0.0036
     34 C         143.0137  142.4130  168.2816 C.1     1  UNL1        0.1004
     35 N         143.9658  142.3401  169.4384 N.1     1  UNL1       -0.1908
@<TRIPOS>BOND
     1     8     9    1
     2     9    10   ar
     3    10    11   ar
     4    11    12   ar
     5    12    13   ar
     6    13     2    1
     7     2     3   ar
     8     3     4   ar
     9     4     5   ar
    10     5     1    1
    11     1    19    1
    12    19    20    1
    13    20    21    1
    14    21    22    1
    15    22    23    1
    16    23    24    1
    17    24    25    1
    18    25    26    1
    19    26    28    1
    20    28    29   ar
    21    29    30   ar
    22    30    31   ar
    23    31    34    1
    24    34    35    3
    25    31    32   ar
    26    32    33   ar
    27    26    27    1
    28     5     6   ar
    29     6     7    1
    30    13    14   ar
    31    14    15   ar
    32    15    16   ar
    33    16    17   ar
    34    17    18   ar
    35    18     9   ar
    36    17    12   ar
    37     6     2   ar
    38    27    22    1
    39    26    24    1
    40    33    28   ar
@<TRIPOS>MOLECULE
*****
 35 40 0 0 0
SMALL
GASTEIGER

@<TRIPOS>ATOM
      1 S         140.5326  140.2747  169.2138 S.3     1  UNL1       -0.0756
      2 C         138.8418  140.7582  165.7535 C.ar    1  UNL1        0.1669
      3 N         138.2882  139.4255  166.1630 N.ar    1  UNL1       -0.1282
      4 N         138.8542  139.0822  167.5090 N.ar    1  UNL1       -0.1221
      5 C         139.7576  140.2027  167.9315 C.ar    1  UNL1        0.1932
      6 N         139.7500  141.2385  166.8465 N.ar    1  UNL1       -0.2884
      7 C         140.5159  142.5281  166.8533 C.3     1  UNL1        0.1340
      8 C         140.0351  139.0279  159.2089 C.3     1  UNL1        0.0521
      9 C         139.6614  139.6417  160.5255 C.ar    1  UNL1        0.0593
     10 C         139.9630  138.9167  161.8035 C.ar    1  UNL1        0.0147
     11 C         139.5893  139.5305  163.1202 C.ar    1  UNL1        0.0028
     12 C         138.9140  140.8693  163.1588 C.ar    1  UNL1        0.0206
     13 C         138.5402  141.4831  164.4755 C.ar    1  UNL1        0.0374
     14 C         137.8649  142.8219  164.5141 C.ar    1  UNL1        0.0031
     15 C         137.5633  143.5470  163.2360 C.ar    1  UNL1        0.0016
     16 C         137.9370  142.9332  161.9194 C.ar    1  UNL1        0.0191
     17 C         138.6124  141.5943  161.8808 C.ar    1  UNL1        0.0810
     18 N         138.9861  140.9805  160.5641 N.ar    1  UNL1       -0.2497
     19 C         141.8577  139.5813  169.3292 C.3     1  UNL1        0.0666
     20 C         142.8929  139.7590  168.2584 C.3     1  UNL1        0.0294
     21 C         142.7441  139.0479  166.9460 C.3     1  UNL1        0.0730
     22 N         143.3034  139.6579  165.6949 N.3     1  UNL1       -0.2724
     23 C         144.5601  139.2352  164.9935 C.3     1  UNL1        0.0724
     24 C         144.7375  140.1137  163.7907 C.3     1  UNL1        0.0214
     25 C         144.6483  141.1248  162.6862 C.3     1  UNL1        0.0072
     26 C         143.5904  141.0793  163.7487 C.3     1  UNL1        0.0350
     27 C         142.7041  140.7977  164.9256 C.3     1  UNL1        0.0761
     28 C         142.7700  142.2096  163.2015 C.ar    1  UNL1       -0.0214
     29 C         142.3616  143.3418  164.0966 C.ar    1  UNL1       -0.0036
     30 C         141.5411  144.4721  163.5494 C.ar    1  UNL1        0.0100
     31 C         141.1291  144.4701  162.1071 C.ar    1  UNL1        0.0684
     32 C         141.5375  143.3378  161.2120 C.ar    1  UNL1        0.0100
     33 C         142.3579  142.2076  161.7592 C.ar    1  UNL1       -0.0036
     34 C         140.3086  145.6003  161.5599 C.1     1  UNL1        0.1004
     35 N         139.4882  146.7305  161.0127 N.1     1  UNL1       -0.1908
@<TRIPOS>BOND
     1     8     9    1
     2     9    10   ar
     3    10    11   ar
     4    11    12   ar
     5    12    13   ar
     6    13     2    1
     7     2     3   ar
     8     3     4   ar
     9     4     5   ar
    10     5     1    1
    11     1    19    1
    12    19    20    1
    13    20    21    1
    14    21    22    1
    15    22    23    1
    16    23    24    1
    17    24    25    1
    18    25    26    1
    19    26    28    1
    20    28    29   ar
    21    29    30   ar
    22    30    31   ar
    23    31    34    1
    24    34    35    3
    25    31    32   ar
    26    32    33   ar
    27    26    27    1
    28     5     6   ar
    29     6     7    1
    30    13    14   ar
    31    14    15   ar
    32    15    16   ar
    33    16    17   ar
    34    17    18   ar
    35    18     9   ar
    36    17    12   ar
    37     6     2   ar
    38    27    22    1
    39    26    24    1
    40    33    28   ar
