@<TRIPOS>MOLECULE
*****
 38 41 0 0 0
SMALL
GASTEIGER

@<TRIPOS>ATOM
      1 C         140.7676  143.2849  163.9618 C.ar    1  UNL1       -0.0223
      2 C         140.7199  144.7734  163.7823 C.ar    1  UNL1       -0.0030
      3 C         140.3980  145.3569  162.4385 C.ar    1  UNL1        0.0143
      4 C         140.1238  144.4519  161.2741 C.ar    1  UNL1        0.0502
      5 C         140.1714  142.9635  161.4536 C.ar    1  UNL1        0.0089
      6 C         140.4933  142.3800  162.7974 C.ar    1  UNL1       -0.0034
      7 C         142.0551  140.9509  169.3372 C.2     1  UNL1        0.2379
      8 O         143.1147  139.8967  169.4628 O.2     1  UNL1       -0.2735
      9 N         141.7332  141.5344  167.9933 N.am    1  UNL1       -0.2785
     10 C         140.6736  142.5886  167.8677 C.3     1  UNL1        0.0938
     11 C         140.3517  143.1721  166.5239 C.3     1  UNL1        0.0259
     12 C         141.0894  142.7014  165.3056 C.3     1  UNL1        0.0257
     13 C         142.1491  141.6473  165.4312 C.3     1  UNL1        0.0259
     14 C         142.4710  141.0638  166.7751 C.3     1  UNL1        0.0938
     15 C         140.3323  140.3024  170.3913 C.3     1  UNL1        0.0249
     16 C         141.3173  141.4216  170.5554 C.3     1  UNL1        0.1089
     17 C         142.3023  142.5408  170.7195 C.3     1  UNL1        0.0249
     18 N         140.5795  141.8922  171.7737 N.3     1  UNL1       -0.3164
     19 H         141.0438  142.7165  172.1551 H       1  UNL1        0.1192
     20 H         140.5726  141.1511  172.4745 H       1  UNL1        0.1192
     21 C         139.8972  142.0585  160.2891 C.2     1  UNL1       -0.0253
     22 C         141.0335  141.5382  159.4597 C.2     1  UNL1       -0.0303
     23 C         140.7593  140.6332  158.2954 C.3     1  UNL1        0.0257
     24 C         139.3487  140.2485  157.9603 C.3     1  UNL1        0.0050
     25 C         138.2123  140.7688  158.7897 C.3     1  UNL1        0.0050
     26 C         138.4866  141.6738  159.9542 C.3     1  UNL1        0.0261
     27 N         139.8019  145.0354  159.9303 N.am    1  UNL1       -0.2779
     28 C         140.9014  145.3017  158.9453 C.2     1  UNL1        0.2837
     29 O         142.3230  144.9844  159.3043 O.2     1  UNL1       -0.2665
     30 H         138.8690  145.2437  159.6947 H       1  UNL1        0.1553
     31 C         140.5796  145.8852  157.6015 C.ar    1  UNL1        0.1959
     32 N         141.2035  145.4895  156.2961 N.ar    1  UNL1       -0.2123
     33 C         140.5868  146.3266  155.2149 C.ar    1  UNL1        0.1678
     34 C         139.5817  147.2397  155.8521 C.ar    1  UNL1        0.1036
     35 N         139.5772  146.9670  157.3271 N.ar    1  UNL1       -0.3319
     36 H         139.0151  147.4186  157.9974 H       1  UNL1        0.1676
     37 C         140.9171  146.2619  153.7532 C.1     1  UNL1        0.1214
     38 N         141.2475  146.1973  152.2915 N.1     1  UNL1       -0.1892
@<TRIPOS>BOND
     1    15    16    1
     2    16    17    1
     3    16    18    1
     4    16     7    1
     5     7     8    2
     6     7     9   am
     7     9    10    1
     8    10    11    1
     9    11    12    1
    10    12     1    1
    11     1     2   ar
    12     2     3   ar
    13     3     4   ar
    14     4    27    1
    15    27    28   am
    16    28    29    2
    17    28    31    1
    18    31    32   ar
    19    32    33   ar
    20    33    37    1
    21    37    38    3
    22    33    34   ar
    23    34    35   ar
    24     4     5   ar
    25     5    21    1
    26    21    22    2
    27    22    23    1
    28    23    24    1
    29    24    25    1
    30    25    26    1
    31     5     6   ar
    32    12    13    1
    33    13    14    1
    34    14     9    1
    35     6     1   ar
    36    35    31   ar
    37    26    21    1
    38    18    19    1
    39    18    20    1
    40    27    30    1
    41    35    36    1
@<TRIPOS>MOLECULE
*****
 38 41 0 0 0
SMALL
GASTEIGER

@<TRIPOS>ATOM
      1 C         141.3150  143.0362  164.2136 C.ar    1  UNL1       -0.0223
      2 C         140.7676  144.4245  164.0620 C.ar    1  UNL1       -0.0030
      3 C         140.8230  145.1111  162.7295 C.ar    1  UNL1        0.0143
      4 C         141.4257  144.4094  161.5487 C.ar    1  UNL1        0.0502
      5 C         141.9731  143.0212  161.7004 C.ar    1  UNL1        0.0089
      6 C         141.9177  142.3346  163.0329 C.ar    1  UNL1       -0.0034
      7 C         141.0935  140.2898  169.5436 C.2     1  UNL1        0.2379
      8 O         139.7884  139.7628  170.0621 O.2     1  UNL1       -0.2735
      9 N         141.1488  140.9764  168.2111 N.am    1  UNL1       -0.2785
     10 C         142.4540  141.5034  167.6926 C.3     1  UNL1        0.0938
     11 C         142.5093  142.1900  166.3601 C.3     1  UNL1        0.0259
     12 C         141.2596  142.3496  165.5461 C.3     1  UNL1        0.0257
     13 C         139.9545  141.8226  166.0646 C.3     1  UNL1        0.0259
     14 C         139.8991  141.1360  167.3971 C.3     1  UNL1        0.0938
     15 C         142.0935  141.4615  171.0020 C.3     1  UNL1        0.0249
     16 C         142.3432  140.1302  170.3576 C.3     1  UNL1        0.1089
     17 C         142.5929  138.7989  169.7132 C.3     1  UNL1        0.0249
     18 N         143.5930  139.9707  171.1716 N.3     1  UNL1       -0.3164
     19 H         144.0364  139.0810  170.9430 H       1  UNL1        0.1192
     20 H         143.3570  139.9879  172.1638 H       1  UNL1        0.1192
     21 C         142.5759  142.3194  160.5195 C.2     1  UNL1       -0.0253
     22 C         143.9597  142.6743  160.0623 C.2     1  UNL1       -0.0303
     23 C         144.5625  141.9727  158.8816 C.3     1  UNL1        0.0257
     24 C         143.7815  140.9160  158.1580 C.3     1  UNL1        0.0050
     25 C         142.3977  140.5611  158.6152 C.3     1  UNL1        0.0050
     26 C         141.7949  141.2628  159.7960 C.3     1  UNL1        0.0261
     27 N         141.4811  145.0960  160.2162 N.am    1  UNL1       -0.2779
     28 C         140.4151  144.8358  159.1935 C.2     1  UNL1        0.2837
     29 O         139.2936  143.8890  159.5033 O.2     1  UNL1       -0.2665
     30 H         142.2171  145.7174  160.0129 H       1  UNL1        0.1553
     31 C         140.4705  145.5224  157.8610 C.ar    1  UNL1        0.1959
     32 N         141.2221  145.0452  156.6538 N.ar    1  UNL1       -0.2123
     33 C         141.0001  146.0346  155.5485 C.ar    1  UNL1        0.1678
     34 C         140.1113  147.1234  156.0726 C.ar    1  UNL1        0.1036
     35 N         139.7839  146.8069  157.5018 N.ar    1  UNL1       -0.3319
     36 H         139.2179  147.3472  158.0992 H       1  UNL1        0.1676
     37 C         141.5673  145.9502  154.1625 C.1     1  UNL1        0.1214
     38 N         142.1345  145.8657  152.7765 N.1     1  UNL1       -0.1892
@<TRIPOS>BOND
     1    15    16    1
     2    16    17    1
     3    16    18    1
     4    16     7    1
     5     7     8    2
     6     7     9   am
     7     9    10    1
     8    10    11    1
     9    11    12    1
    10    12     1    1
    11     1     2   ar
    12     2     3   ar
    13     3     4   ar
    14     4    27    1
    15    27    28   am
    16    28    29    2
    17    28    31    1
    18    31    32   ar
    19    32    33   ar
    20    33    37    1
    21    37    38    3
    22    33    34   ar
    23    34    35   ar
    24     4     5   ar
    25     5    21    1
    26    21    22    2
    27    22    23    1
    28    23    24    1
    29    24    25    1
    30    25    26    1
    31     5     6   ar
    32    12    13    1
    33    13    14    1
    34    14     9    1
    35     6     1   ar
    36    35    31   ar
    37    26    21    1
    38    18    19    1
    39    18    20    1
    40    27    30    1
    41    35    36    1
@<TRIPOS>MOLECULE
*****
 38 41 0 0 0
SMALL
GASTEIGER

@<TRIPOS>ATOM
      1 C         139.3805  141.2586  164.3105 C.ar    1  UNL1       -0.0223
      2 C         138.1578  141.9616  163.8001 C.ar    1  UNL1       -0.0030
      3 C         137.9490  142.1272  162.3240 C.ar    1  UNL1        0.0143
      4 C         138.9630  141.5897  161.3582 C.ar    1  UNL1        0.0502
      5 C         140.1858  140.8866  161.8685 C.ar    1  UNL1        0.0089
      6 C         140.3945  140.7210  163.3447 C.ar    1  UNL1       -0.0034
      7 C         140.2155  140.5963  170.2151 C.2     1  UNL1        0.2379
      8 O         139.5027  139.5038  170.9555 O.2     1  UNL1       -0.2735
      9 N         140.0068  140.7619  168.7389 N.am    1  UNL1       -0.2785
     10 C         140.7196  141.8544  167.9985 C.3     1  UNL1        0.0938
     11 C         140.5108  142.0200  166.5224 C.3     1  UNL1        0.0259
     12 C         139.5893  141.0930  165.7866 C.3     1  UNL1        0.0257
     13 C         138.8765  140.0005  166.5270 C.3     1  UNL1        0.0259
     14 C         139.0852  139.8349  168.0032 C.3     1  UNL1        0.0938
     15 C         140.0371  142.5382  171.0499 C.3     1  UNL1        0.0249
     16 C         141.1371  141.5233  170.9508 C.3     1  UNL1        0.1089
     17 C         142.2371  140.5084  170.8518 C.3     1  UNL1        0.0249
     18 N         142.0587  142.4504  171.6866 N.3     1  UNL1       -0.3164
     19 H         142.9728  142.0098  171.7899 H       1  UNL1        0.1192
     20 H         141.6725  142.6525  172.6088 H       1  UNL1        0.1192
     21 C         141.1999  140.3490  160.9027 C.2     1  UNL1       -0.0253
     22 C         142.3492  141.2085  160.4663 C.2     1  UNL1       -0.0303
     23 C         143.3633  140.6710  159.5006 C.3     1  UNL1        0.0257
     24 C         143.2281  139.2740  158.9712 C.3     1  UNL1        0.0050
     25 C         142.0787  138.4146  159.4076 C.3     1  UNL1        0.0050
     26 C         141.0647  138.9521  160.3734 C.3     1  UNL1        0.0261
     27 N         138.7543  141.7552  159.8820 N.am    1  UNL1       -0.2779
     28 C         137.9526  140.7423  159.1197 C.2     1  UNL1        0.2837
     29 O         137.3595  139.5638  159.8335 O.2     1  UNL1       -0.2665
     30 H         139.1435  142.5287  159.4136 H       1  UNL1        0.1553
     31 C         137.7438  140.9079  157.6435 C.ar    1  UNL1        0.1959
     32 N         136.4518  140.7087  156.9080 N.ar    1  UNL1       -0.2123
     33 C         136.6999  140.9794  155.4536 C.ar    1  UNL1        0.1678
     34 C         138.1452  141.3459  155.2903 C.ar    1  UNL1        0.1036
     35 N         138.7905  141.3017  156.6438 N.ar    1  UNL1       -0.3319
     36 H         139.7350  141.4970  156.8412 H       1  UNL1        0.1676
     37 C         135.6816  140.8979  154.3554 C.1     1  UNL1        0.1214
     38 N         134.6632  140.8164  153.2570 N.1     1  UNL1       -0.1892
@<TRIPOS>BOND
     1    15    16    1
     2    16    17    1
     3    16    18    1
     4    16     7    1
     5     7     8    2
     6     7     9   am
     7     9    10    1
     8    10    11    1
     9    11    12    1
    10    12     1    1
    11     1     2   ar
    12     2     3   ar
    13     3     4   ar
    14     4    27    1
    15    27    28   am
    16    28    29    2
    17    28    31    1
    18    31    32   ar
    19    32    33   ar
    20    33    37    1
    21    37    38    3
    22    33    34   ar
    23    34    35   ar
    24     4     5   ar
    25     5    21    1
    26    21    22    2
    27    22    23    1
    28    23    24    1
    29    24    25    1
    30    25    26    1
    31     5     6   ar
    32    12    13    1
    33    13    14    1
    34    14     9    1
    35     6     1   ar
    36    35    31   ar
    37    26    21    1
    38    18    19    1
    39    18    20    1
    40    27    30    1
    41    35    36    1
@<TRIPOS>MOLECULE
*****
 38 41 0 0 0
SMALL
GASTEIGER

@<TRIPOS>ATOM
      1 C         140.5126  139.4161  164.0772 C.ar    1  UNL1       -0.0223
      2 C         140.1426  138.0789  163.5072 C.ar    1  UNL1       -0.0030
      3 C         140.3834  137.7900  162.0551 C.ar    1  UNL1        0.0143
      4 C         140.9941  138.8382  161.1731 C.ar    1  UNL1        0.0502
      5 C         141.3641  140.1754  161.7431 C.ar    1  UNL1        0.0089
      6 C         141.1233  140.4644  163.1952 C.ar    1  UNL1       -0.0034
      7 C         139.5495  140.5718  169.8856 C.2     1  UNL1        0.2379
      8 O         138.3159  140.0489  170.5598 O.2     1  UNL1       -0.2735
      9 N         139.7903  140.2829  168.4335 N.am    1  UNL1       -0.2785
     10 C         141.0239  140.8059  167.7592 C.3     1  UNL1        0.0938
     11 C         141.2646  140.5169  166.3071 C.3     1  UNL1        0.0259
     12 C         140.2718  139.7050  165.5293 C.3     1  UNL1        0.0257
     13 C         139.0382  139.1821  166.2036 C.3     1  UNL1        0.0259
     14 C         138.7974  139.4710  167.6557 C.3     1  UNL1        0.0938
     15 C         139.7202  142.6158  170.4267 C.3     1  UNL1        0.0249
     16 C         140.5423  141.3837  170.6634 C.3     1  UNL1        0.1089
     17 C         141.3645  140.1517  170.9001 C.3     1  UNL1        0.0249
     18 N         141.5352  142.1957  171.4413 N.3     1  UNL1       -0.3164
     19 H         142.2873  141.5899  171.7693 H       1  UNL1        0.1192
     20 H         141.0708  142.6250  172.2416 H       1  UNL1        0.1192
     21 C         141.9748  141.2238  160.8610 C.2     1  UNL1       -0.0253
     22 C         143.4666  141.3352  160.7510 C.2     1  UNL1       -0.0303
     23 C         144.0774  142.3835  159.8690 C.3     1  UNL1        0.0257
     24 C         143.1964  143.3205  159.0969 C.3     1  UNL1        0.0050
     25 C         141.7046  143.2090  159.2069 C.3     1  UNL1        0.0050
     26 C         141.0938  142.1607  160.0890 C.3     1  UNL1        0.0261
     27 N         141.2349  138.5493  159.7210 N.am    1  UNL1       -0.2779
     28 C         142.5661  138.0244  159.2714 C.2     1  UNL1        0.2837
     29 O         143.6567  137.7884  160.2740 O.2     1  UNL1       -0.2665
     30 H         140.5191  138.7042  159.0630 H       1  UNL1        0.1553
     31 C         142.8069  137.7355  157.8193 C.ar    1  UNL1        0.1959
     32 N         142.3260  136.5291  157.0688 N.ar    1  UNL1       -0.2123
     33 C         142.7927  136.6502  155.6485 C.ar    1  UNL1        0.1678
     34 C         143.5622  137.9315  155.5211 C.ar    1  UNL1        0.1036
     35 N         143.5710  138.6023  156.8628 N.ar    1  UNL1       -0.3319
     36 H         144.0024  139.4607  157.0777 H       1  UNL1        0.1676
     37 C         142.5353  135.6634  154.5486 C.1     1  UNL1        0.1214
     38 N         142.2777  134.6766  153.4486 N.1     1  UNL1       -0.1892
@<TRIPOS>BOND
     1    15    16    1
     2    16    17    1
     3    16    18    1
     4    16     7    1
     5     7     8    2
     6     7     9   am
     7     9    10    1
     8    10    11    1
     9    11    12    1
    10    12     1    1
    11     1     2   ar
    12     2     3   ar
    13     3     4   ar
    14     4    27    1
    15    27    28   am
    16    28    29    2
    17    28    31    1
    18    31    32   ar
    19    32    33   ar
    20    33    37    1
    21    37    38    3
    22    33    34   ar
    23    34    35   ar
    24     4     5   ar
    25     5    21    1
    26    21    22    2
    27    22    23    1
    28    23    24    1
    29    24    25    1
    30    25    26    1
    31     5     6   ar
    32    12    13    1
    33    13    14    1
    34    14     9    1
    35     6     1   ar
    36    35    31   ar
    37    26    21    1
    38    18    19    1
    39    18    20    1
    40    27    30    1
    41    35    36    1
@<TRIPOS>MOLECULE
*****
 38 41 0 0 0
SMALL
GASTEIGER

@<TRIPOS>ATOM
      1 C         139.7995  142.4106  164.2081 C.ar    1  UNL1       -0.0223
      2 C         139.2851  143.7853  163.8990 C.ar    1  UNL1       -0.0030
      3 C         139.1083  144.2169  162.4734 C.ar    1  UNL1        0.0143
      4 C         139.4460  143.2739  161.3569 C.ar    1  UNL1        0.0502
      5 C         139.9604  141.8992  161.6660 C.ar    1  UNL1        0.0089
      6 C         140.1372  141.4676  163.0916 C.ar    1  UNL1       -0.0034
      7 C         140.5065  140.6841  169.9107 C.2     1  UNL1        0.2379
      8 O         139.8532  139.4256  170.3998 O.2     1  UNL1       -0.2735
      9 N         140.3297  141.1157  168.4851 N.am    1  UNL1       -0.2785
     10 C         140.9831  142.3742  167.9960 C.3     1  UNL1        0.0938
     11 C         140.8063  142.8059  166.5703 C.3     1  UNL1        0.0259
     12 C         139.9762  141.9790  165.6338 C.3     1  UNL1        0.0257
     13 C         139.3229  140.7205  166.1228 C.3     1  UNL1        0.0259
     14 C         139.4997  140.2888  167.5485 C.3     1  UNL1        0.0938
     15 C         140.1771  142.4397  171.0548 C.3     1  UNL1        0.0249
     16 C         141.3365  141.5110  170.8473 C.3     1  UNL1        0.1089
     17 C         142.4959  140.5822  170.6397 C.3     1  UNL1        0.0249
     18 N         142.1666  142.3379  171.7839 N.3     1  UNL1       -0.3164
     19 H         143.0981  141.9299  171.8631 H       1  UNL1        0.1192
     20 H         141.7246  142.3574  172.7029 H       1  UNL1        0.1192
     21 C         140.2982  140.9561  160.5495 C.2     1  UNL1       -0.0253
     22 C         139.2784  139.9664  160.0695 C.2     1  UNL1       -0.0303
     23 C         139.6160  139.0233  158.9530 C.3     1  UNL1        0.0257
     24 C         140.9735  139.0699  158.3165 C.3     1  UNL1        0.0050
     25 C         141.9933  140.0597  158.7965 C.3     1  UNL1        0.0050
     26 C         141.6556  141.0028  159.9130 C.3     1  UNL1        0.0261
     27 N         139.2693  143.7056  159.9312 N.am    1  UNL1       -0.2779
     28 C         140.3241  144.5365  159.2629 C.2     1  UNL1        0.2837
     29 O         141.5559  144.9359  160.0202 O.2     1  UNL1       -0.2665
     30 H         138.4609  143.4434  159.4342 H       1  UNL1        0.1553
     31 C         140.1474  144.9682  157.8373 C.ar    1  UNL1        0.1959
     32 N         140.1602  146.3819  157.3360 N.ar    1  UNL1       -0.2123
     33 C         139.9475  146.3493  155.8515 C.ar    1  UNL1        0.1678
     34 C         139.8033  144.9155  155.4353 C.ar    1  UNL1        0.1036
     35 N         139.9268  144.0618  156.6625 N.ar    1  UNL1       -0.3319
     36 H         139.8727  143.0792  156.6918 H       1  UNL1        0.1676
     37 C         139.8893  147.5412  154.9428 C.1     1  UNL1        0.1214
     38 N         139.8310  148.7333  154.0342 N.1     1  UNL1       -0.1892
@<TRIPOS>BOND
     1    15    16    1
     2    16    17    1
     3    16    18    1
     4    16     7    1
     5     7     8    2
     6     7     9   am
     7     9    10    1
     8    10    11    1
     9    11    12    1
    10    12     1    1
    11     1     2   ar
    12     2     3   ar
    13     3     4   ar
    14     4    27    1
    15    27    28   am
    16    28    29    2
    17    28    31    1
    18    31    32   ar
    19    32    33   ar
    20    33    37    1
    21    37    38    3
    22    33    34   ar
    23    34    35   ar
    24     4     5   ar
    25     5    21    1
    26    21    22    2
    27    22    23    1
    28    23    24    1
    29    24    25    1
    30    25    26    1
    31     5     6   ar
    32    12    13    1
    33    13    14    1
    34    14     9    1
    35     6     1   ar
    36    35    31   ar
    37    26    21    1
    38    18    19    1
    39    18    20    1
    40    27    30    1
    41    35    36    1
@<TRIPOS>MOLECULE
*****
 38 41 0 0 0
SMALL
GASTEIGER

@<TRIPOS>ATOM
      1 C         142.8760  141.5086  163.9382 C.ar    1  UNL1       -0.0223
      2 C         144.2820  141.1194  163.5891 C.ar    1  UNL1       -0.0030
      3 C         144.7922  141.3238  162.1934 C.ar    1  UNL1        0.0143
      4 C         143.8965  141.9174  161.1468 C.ar    1  UNL1        0.0502
      5 C         142.4906  142.3066  161.4959 C.ar    1  UNL1        0.0089
      6 C         141.9804  142.1022  162.8916 C.ar    1  UNL1       -0.0034
      7 C         140.8350  140.6910  169.5208 C.2     1  UNL1        0.2379
      8 O         139.7219  139.7189  169.7776 O.2     1  UNL1       -0.2735
      9 N         141.3453  140.8954  168.1251 N.am    1  UNL1       -0.2785
     10 C         142.4584  141.8675  167.8684 C.3     1  UNL1        0.0938
     11 C         142.9686  142.0719  166.4727 C.3     1  UNL1        0.0259
     12 C         142.3658  141.3042  165.3338 C.3     1  UNL1        0.0257
     13 C         141.2527  140.3321  165.5906 C.3     1  UNL1        0.0259
     14 C         140.7424  140.1277  166.9862 C.3     1  UNL1        0.0938
     15 C         142.5254  140.4323  170.7759 C.3     1  UNL1        0.0249
     16 C         141.4379  141.4587  170.6597 C.3     1  UNL1        0.1089
     17 C         140.3503  142.4852  170.5435 C.3     1  UNL1        0.0249
     18 N         142.0408  142.2265  171.7987 N.3     1  UNL1       -0.3164
     19 H         141.4802  143.0586  171.9823 H       1  UNL1        0.1192
     20 H         142.9918  142.5040  171.5560 H       1  UNL1        0.1192
     21 C         141.5949  142.9001  160.4493 C.2     1  UNL1       -0.0253
     22 C         140.7820  142.0045  159.5621 C.2     1  UNL1       -0.0303
     23 C         139.8863  142.5980  158.5155 C.3     1  UNL1        0.0257
     24 C         139.8034  144.0873  158.3561 C.3     1  UNL1        0.0050
     25 C         140.6162  144.9829  159.2433 C.3     1  UNL1        0.0050
     26 C         141.5120  144.3893  160.2899 C.3     1  UNL1        0.0261
     27 N         144.4068  142.1218  159.7512 N.am    1  UNL1       -0.2779
     28 C         144.4010  140.9820  158.7761 C.2     1  UNL1        0.2837
     29 O         143.8850  139.6377  159.1966 O.2     1  UNL1       -0.2665
     30 H         144.7454  143.0040  159.4752 H       1  UNL1        0.1553
     31 C         144.9113  141.1864  157.3804 C.ar    1  UNL1        0.1959
     32 N         144.8329  142.4592  156.5906 N.ar    1  UNL1       -0.2123
     33 C         145.4627  142.2133  155.2515 C.ar    1  UNL1        0.1678
     34 C         145.9303  140.7886  155.2139 C.ar    1  UNL1        0.1036
     35 N         145.5896  140.1538  156.5296 N.ar    1  UNL1       -0.3319
     36 H         145.7780  139.2230  156.7891 H       1  UNL1        0.1676
     37 C         145.6006  143.2160  154.1446 C.1     1  UNL1        0.1214
     38 N         145.7387  144.2188  153.0376 N.1     1  UNL1       -0.1892
@<TRIPOS>BOND
     1    15    16    1
     2    16    17    1
     3    16    18    1
     4    16     7    1
     5     7     8    2
     6     7     9   am
     7     9    10    1
     8    10    11    1
     9    11    12    1
    10    12     1    1
    11     1     2   ar
    12     2     3   ar
    13     3     4   ar
    14     4    27    1
    15    27    28   am
    16    28    29    2
    17    28    31    1
    18    31    32   ar
    19    32    33   ar
    20    33    37    1
    21    37    38    3
    22    33    34   ar
    23    34    35   ar
    24     4     5   ar
    25     5    21    1
    26    21    22    2
    27    22    23    1
    28    23    24    1
    29    24    25    1
    30    25    26    1
    31     5     6   ar
    32    12    13    1
    33    13    14    1
    34    14     9    1
    35     6     1   ar
    36    35    31   ar
    37    26    21    1
    38    18    19    1
    39    18    20    1
    40    27    30    1
    41    35    36    1
@<TRIPOS>MOLECULE
*****
 38 41 0 0 0
SMALL
GASTEIGER

@<TRIPOS>ATOM
      1 C         141.0316  138.8313  161.0322 C.ar    1  UNL1       -0.0223
      2 C         141.4835  137.7069  161.9161 C.ar    1  UNL1       -0.0030
      3 C         141.4532  137.8664  163.4073 C.ar    1  UNL1        0.0143
      4 C         140.9709  139.1504  164.0146 C.ar    1  UNL1        0.0502
      5 C         140.5190  140.2748  163.1307 C.ar    1  UNL1        0.0089
      6 C         140.5493  140.1153  161.6395 C.ar    1  UNL1       -0.0034
      7 C         141.1529  138.1933  155.0675 C.2     1  UNL1        0.2379
      8 O         139.8822  137.9294  154.3154 O.2     1  UNL1       -0.2735
      9 N         141.1225  138.3528  156.5587 N.am    1  UNL1       -0.2785
     10 C         142.3933  138.6167  157.3107 C.3     1  UNL1        0.0938
     11 C         142.3629  138.7762  158.8019 C.3     1  UNL1        0.0259
     12 C         141.0619  138.6718  159.5410 C.3     1  UNL1        0.0257
     13 C         139.7912  138.4079  158.7890 C.3     1  UNL1        0.0259
     14 C         139.8215  138.2484  157.2978 C.3     1  UNL1        0.0938
     15 C         142.6547  136.8182  154.4729 C.3     1  UNL1        0.0249
     16 C         142.4539  138.2977  154.3283 C.3     1  UNL1        0.1089
     17 C         142.2531  139.7771  154.1837 C.3     1  UNL1        0.0249
     18 N         143.7550  138.4020  153.5891 N.3     1  UNL1       -0.3164
     19 H         143.9212  139.3741  153.3289 H       1  UNL1        0.1192
     20 H         143.7151  137.8268  152.7477 H       1  UNL1        0.1192
     21 C         140.0367  141.5588  163.7380 C.2     1  UNL1       -0.0253
     22 C         141.0192  142.6331  164.0993 C.2     1  UNL1       -0.0303
     23 C         140.5370  143.9171  164.7065 C.3     1  UNL1        0.0257
     24 C         139.0722  144.1269  164.9525 C.3     1  UNL1        0.0050
     25 C         138.0896  143.0525  164.5912 C.3     1  UNL1        0.0050
     26 C         138.5720  141.7685  163.9839 C.3     1  UNL1        0.0261
     27 N         140.9406  139.3099  165.5058 N.am    1  UNL1       -0.2779
     28 C         142.1988  139.6467  166.2498 C.2     1  UNL1        0.2837
     29 O         143.4873  139.8240  165.5026 O.2     1  UNL1       -0.2665
     30 H         140.0949  139.1935  165.9962 H       1  UNL1        0.1553
     31 C         142.1685  139.8062  167.7409 C.ar    1  UNL1        0.1959
     32 N         141.3751  140.8262  168.5026 N.ar    1  UNL1       -0.2123
     33 C         141.6425  140.6241  169.9647 C.ar    1  UNL1        0.1678
     34 C         142.6011  139.4792  170.1067 C.ar    1  UNL1        0.1036
     35 N         142.9262  138.9736  168.7323 N.ar    1  UNL1       -0.3319
     36 H         143.5307  138.2266  168.5185 H       1  UNL1        0.1676
     37 C         141.0546  141.4261  171.0876 C.1     1  UNL1        0.1214
     38 N         140.4666  142.2280  172.2106 N.1     1  UNL1       -0.1892
@<TRIPOS>BOND
     1    15    16    1
     2    16    17    1
     3    16    18    1
     4    16     7    1
     5     7     8    2
     6     7     9   am
     7     9    10    1
     8    10    11    1
     9    11    12    1
    10    12     1    1
    11     1     2   ar
    12     2     3   ar
    13     3     4   ar
    14     4    27    1
    15    27    28   am
    16    28    29    2
    17    28    31    1
    18    31    32   ar
    19    32    33   ar
    20    33    37    1
    21    37    38    3
    22    33    34   ar
    23    34    35   ar
    24     4     5   ar
    25     5    21    1
    26    21    22    2
    27    22    23    1
    28    23    24    1
    29    24    25    1
    30    25    26    1
    31     5     6   ar
    32    12    13    1
    33    13    14    1
    34    14     9    1
    35     6     1   ar
    36    35    31   ar
    37    26    21    1
    38    18    19    1
    39    18    20    1
    40    27    30    1
    41    35    36    1
@<TRIPOS>MOLECULE
*****
 38 41 0 0 0
SMALL
GASTEIGER

@<TRIPOS>ATOM
      1 C         139.1221  139.6235  163.7857 C.ar    1  UNL1       -0.0223
      2 C         138.4846  138.3805  163.2393 C.ar    1  UNL1       -0.0030
      3 C         138.3585  138.1919  161.7565 C.ar    1  UNL1        0.0143
      4 C         138.8699  139.2462  160.8202 C.ar    1  UNL1        0.0502
      5 C         139.5075  140.4891  161.3666 C.ar    1  UNL1        0.0089
      6 C         139.6336  140.6778  162.8493 C.ar    1  UNL1       -0.0034
      7 C         139.6265  140.3780  169.7166 C.2     1  UNL1        0.2379
      8 O         138.6427  139.7255  170.6420 O.2     1  UNL1       -0.2735
      9 N         139.5004  140.1893  168.2339 N.am    1  UNL1       -0.2785
     10 C         140.4842  140.8418  167.3085 C.3     1  UNL1        0.0938
     11 C         140.3581  140.6532  165.8257 C.3     1  UNL1        0.0259
     12 C         139.2482  139.8121  165.2684 C.3     1  UNL1        0.0257
     13 C         138.2644  139.1596  166.1938 C.3     1  UNL1        0.0259
     14 C         138.3905  139.3482  167.6765 C.3     1  UNL1        0.0938
     15 C         141.6385  140.0208  170.2857 C.3     1  UNL1        0.0249
     16 C         140.7364  141.2191  170.2740 C.3     1  UNL1        0.1089
     17 C         139.8342  142.4173  170.2622 C.3     1  UNL1        0.0249
     18 N         141.8463  142.0602  170.8313 N.3     1  UNL1       -0.3164
     19 H         141.5195  143.0190  170.9502 H       1  UNL1        0.1192
     20 H         142.6380  142.0480  170.1883 H       1  UNL1        0.1192
     21 C         140.0190  141.5435  160.4302 C.2     1  UNL1       -0.0253
     22 C         139.0882  142.5967  159.9063 C.2     1  UNL1       -0.0303
     23 C         139.5997  143.6511  158.9700 C.3     1  UNL1        0.0257
     24 C         141.0419  143.6523  158.5575 C.3     1  UNL1        0.0050
     25 C         141.9726  142.5991  159.0814 C.3     1  UNL1        0.0050
     26 C         141.4611  141.5447  160.0178 C.3     1  UNL1        0.0261
     27 N         138.7438  139.0576  159.3374 N.am    1  UNL1       -0.2779
     28 C         139.8841  138.4755  158.5558 C.2     1  UNL1        0.2837
     29 O         141.1505  138.0820  159.2569 O.2     1  UNL1       -0.2665
     30 H         137.9127  139.3158  158.8773 H       1  UNL1        0.1553
     31 C         139.7580  138.2869  157.0730 C.ar    1  UNL1        0.1959
     32 N         140.1430  139.2848  156.0214 N.ar    1  UNL1       -0.2123
     33 C         139.8477  138.6819  154.6800 C.ar    1  UNL1        0.1678
     34 C         139.2802  137.3113  154.9026 C.ar    1  UNL1        0.1036
     35 N         139.2247  137.0672  156.3816 N.ar    1  UNL1       -0.3319
     36 H         138.8960  136.2499  156.8213 H       1  UNL1        0.1676
     37 C         140.0793  139.3348  153.3496 C.1     1  UNL1        0.1214
     38 N         140.3109  139.9877  152.0192 N.1     1  UNL1       -0.1892
@<TRIPOS>BOND
     1    15    16    1
     2    16    17    1
     3    16    18    1
     4    16     7    1
     5     7     8    2
     6     7     9   am
     7     9    10    1
     8    10    11    1
     9    11    12    1
    10    12     1    1
    11     1     2   ar
    12     2     3   ar
    13     3     4   ar
    14     4    27    1
    15    27    28   am
    16    28    29    2
    17    28    31    1
    18    31    32   ar
    19    32    33   ar
    20    33    37    1
    21    37    38    3
    22    33    34   ar
    23    34    35   ar
    24     4     5   ar
    25     5    21    1
    26    21    22    2
    27    22    23    1
    28    23    24    1
    29    24    25    1
    30    25    26    1
    31     5     6   ar
    32    12    13    1
    33    13    14    1
    34    14     9    1
    35     6     1   ar
    36    35    31   ar
    37    26    21    1
    38    18    19    1
    39    18    20    1
    40    27    30    1
    41    35    36    1
@<TRIPOS>MOLECULE
*****
 38 41 0 0 0
SMALL
GASTEIGER

@<TRIPOS>ATOM
      1 C         139.9370  140.3308  164.1404 C.ar    1  UNL1       -0.0223
      2 C         138.4681  140.4713  163.8712 C.ar    1  UNL1       -0.0030
      3 C         137.9581  140.4452  162.4608 C.ar    1  UNL1        0.0143
      4 C         138.9171  140.2787  161.3195 C.ar    1  UNL1        0.0502
      5 C         140.3860  140.1382  161.5887 C.ar    1  UNL1        0.0089
      6 C         140.8960  140.1642  162.9991 C.ar    1  UNL1       -0.0034
      7 C         141.9767  140.4350  169.7821 C.2     1  UNL1        0.2379
      8 O         143.1972  139.6459  170.1530 O.2     1  UNL1       -0.2735
      9 N         141.4668  140.4090  168.3716 N.am    1  UNL1       -0.2785
     10 C         140.2463  141.1981  168.0007 C.3     1  UNL1        0.0938
     11 C         139.7364  141.1720  166.5903 C.3     1  UNL1        0.0259
     12 C         140.4469  140.3568  165.5508 C.3     1  UNL1        0.0257
     13 C         141.6674  139.5677  165.9218 C.3     1  UNL1        0.0259
     14 C         142.1773  139.5938  167.3322 C.3     1  UNL1        0.0938
     15 C         142.2250  142.3803  170.5907 C.3     1  UNL1        0.0249
     16 C         141.2662  141.2502  170.8215 C.3     1  UNL1        0.1089
     17 C         140.3073  140.1200  171.0524 C.3     1  UNL1        0.0249
     18 N         140.5556  142.0654  171.8611 N.3     1  UNL1       -0.3164
     19 H         139.7798  141.5257  172.2447 H       1  UNL1        0.1192
     20 H         140.1974  142.9207  171.4361 H       1  UNL1        0.1192
     21 C         141.3451  139.9716  160.4474 C.2     1  UNL1       -0.0253
     22 C         141.6598  138.6007  159.9262 C.2     1  UNL1       -0.0303
     23 C         142.6189  138.4341  158.7850 C.3     1  UNL1        0.0257
     24 C         143.2632  139.6384  158.1648 C.3     1  UNL1        0.0050
     25 C         142.9485  141.0093  158.6860 C.3     1  UNL1        0.0050
     26 C         141.9894  141.1759  159.8273 C.3     1  UNL1        0.0261
     27 N         138.4072  140.2526  159.9091 N.am    1  UNL1       -0.2779
     28 C         138.2437  141.5341  159.1469 C.2     1  UNL1        0.2837
     29 O         138.5902  142.8417  159.7951 O.2     1  UNL1       -0.2665
     30 H         138.1798  139.3944  159.4837 H       1  UNL1        0.1553
     31 C         137.7338  141.5080  157.7365 C.ar    1  UNL1        0.1959
     32 N         137.5108  142.7027  156.8573 N.ar    1  UNL1       -0.2123
     33 C         136.9965  142.2158  155.5351 C.ar    1  UNL1        0.1678
     34 C         136.9016  140.7201  155.5970 C.ar    1  UNL1        0.1036
     35 N         137.3573  140.2826  156.9576 N.ar    1  UNL1       -0.3319
     36 H         137.4015  139.3542  157.2823 H       1  UNL1        0.1676
     37 C         136.6397  143.0738  154.3576 C.1     1  UNL1        0.1214
     38 N         136.2829  143.9319  153.1802 N.1     1  UNL1       -0.1892
@<TRIPOS>BOND
     1    15    16    1
     2    16    17    1
     3    16    18    1
     4    16     7    1
     5     7     8    2
     6     7     9   am
     7     9    10    1
     8    10    11    1
     9    11    12    1
    10    12     1    1
    11     1     2   ar
    12     2     3   ar
    13     3     4   ar
    14     4    27    1
    15    27    28   am
    16    28    29    2
    17    28    31    1
    18    31    32   ar
    19    32    33   ar
    20    33    37    1
    21    37    38    3
    22    33    34   ar
    23    34    35   ar
    24     4     5   ar
    25     5    21    1
    26    21    22    2
    27    22    23    1
    28    23    24    1
    29    24    25    1
    30    25    26    1
    31     5     6   ar
    32    12    13    1
    33    13    14    1
    34    14     9    1
    35     6     1   ar
    36    35    31   ar
    37    26    21    1
    38    18    19    1
    39    18    20    1
    40    27    30    1
    41    35    36    1
