@<TRIPOS>MOLECULE
*****
 33 36 0 0 0
SMALL
GASTEIGER

@<TRIPOS>ATOM
      1 C         141.0199  138.2102  155.9744 C.2     1  UNL1        0.2383
      2 O         139.6809  138.5029  155.3649 O.2     1  UNL1       -0.2735
      3 N         141.1707  138.1632  157.4661 N.am    1  UNL1       -0.2695
      4 C         142.5096  137.8705  158.0756 C.3     1  UNL1        0.1184
      5 C         142.6605  137.8234  159.5673 C.3     1  UNL1        0.1299
      6 N         141.4725  138.0691  160.4494 N.ar    1  UNL1       -0.3005
      7 C         140.1336  138.3618  159.8399 C.ar    1  UNL1        0.1416
      8 N         139.1502  138.5614  160.9549 N.ar    1  UNL1       -0.2279
      9 C         139.8815  138.3920  162.2536 C.ar    1  UNL1        0.1125
     10 C         141.3167  138.0878  161.9412 C.ar    1  UNL1        0.1318
     11 C         139.9827  138.4089  158.3482 C.3     1  UNL1        0.1578
     12 C         139.2827  138.5067  163.6242 C.ar    1  UNL1        0.0205
     13 C         139.0358  137.2727  164.4404 C.ar    1  UNL1        0.0039
     14 C         138.4370  137.3873  165.8109 C.ar    1  UNL1        0.0297
     15 C         138.0851  138.7360  166.3651 C.ar    1  UNL1        0.1401
     16 F         137.4863  138.8507  167.7357 F       1  UNL1       -0.2042
     17 C         138.3320  139.9700  165.5489 C.ar    1  UNL1        0.0297
     18 C         138.9308  139.8554  164.1784 C.ar    1  UNL1        0.0039
     19 C         142.5232  139.4309  155.1086 C.3     1  UNL1        0.0249
     20 C         142.2079  137.9645  155.0923 C.3     1  UNL1        0.1089
     21 C         141.8925  136.4982  155.0760 C.3     1  UNL1        0.0249
     22 N         143.3960  137.7189  154.2102 N.3     1  UNL1       -0.3164
     23 H         143.4631  136.7231  153.9998 H       1  UNL1        0.1192
     24 H         144.2437  138.0231  154.6890 H       1  UNL1        0.1192
     25 N         142.4051  137.8448  162.9444 N.pl3   1  UNL1       -0.2980
     26 H         142.9945  137.0618  162.8512 H       1  UNL1        0.1536
     27 C         142.5954  138.7948  164.0894 C.ar    1  UNL1        0.0495
     28 C         142.5267  138.2917  165.5008 C.ar    1  UNL1        0.0169
     29 C         142.7170  139.2418  166.6459 C.ar    1  UNL1        0.0309
     30 C         142.9761  140.6951  166.3795 C.ar    1  UNL1        0.1402
     31 F         143.1664  141.6451  167.5246 F       1  UNL1       -0.2042
     32 C         143.0448  141.1982  164.9681 C.ar    1  UNL1        0.0309
     33 C         142.8545  140.2481  163.8231 C.ar    1  UNL1        0.0169
@<TRIPOS>BOND
     1    19    20    1
     2    20    21    1
     3    20    22    1
     4    20     1    1
     5     1     2    2
     6     1     3   am
     7     3     4    1
     8     4     5    1
     9     5     6    1
    10     6     7   ar
    11     7     8   ar
    12     8     9   ar
    13     9    12    1
    14    12    13   ar
    15    13    14   ar
    16    14    15   ar
    17    15    16    1
    18    15    17   ar
    19    17    18   ar
    20     9    10   ar
    21    10    25    1
    22    25    27    1
    23    27    28   ar
    24    28    29   ar
    25    29    30   ar
    26    30    31    1
    27    30    32   ar
    28    32    33   ar
    29     7    11    1
    30    11     3    1
    31    10     6   ar
    32    33    27   ar
    33    18    12   ar
    34    22    23    1
    35    22    24    1
    36    25    26    1
@<TRIPOS>MOLECULE
*****
 33 36 0 0 0
SMALL
GASTEIGER

@<TRIPOS>ATOM
      1 C         141.2371  138.2162  155.9974 C.2     1  UNL1        0.2383
      2 O         139.8906  138.3748  155.3558 O.2     1  UNL1       -0.2735
      3 N         141.3610  138.2219  157.4922 N.am    1  UNL1       -0.2695
      4 C         142.7075  138.0632  158.1338 C.3     1  UNL1        0.1184
      5 C         142.8314  138.0690  159.6287 C.3     1  UNL1        0.1299
      6 N         141.6088  138.2334  160.4820 N.ar    1  UNL1       -0.3005
      7 C         140.2622  138.3920  159.8404 C.ar    1  UNL1        0.1416
      8 N         139.2427  138.5345  160.9315 N.ar    1  UNL1       -0.2279
      9 C         139.9592  138.4639  162.2474 C.ar    1  UNL1        0.1125
     10 C         141.4215  138.2778  161.9696 C.ar    1  UNL1        0.1318
     11 C         140.1384  138.3863  158.3455 C.3     1  UNL1        0.1578
     12 C         139.3249  138.5621  163.6031 C.ar    1  UNL1        0.0205
     13 C         139.1307  137.3268  164.4316 C.ar    1  UNL1        0.0039
     14 C         138.4964  137.4250  165.7873 C.ar    1  UNL1        0.0297
     15 C         138.0562  138.7585  166.3145 C.ar    1  UNL1        0.1401
     16 F         137.4219  138.8567  167.6703 F       1  UNL1       -0.2042
     17 C         138.2504  139.9938  165.4861 C.ar    1  UNL1        0.0297
     18 C         138.8847  139.8956  164.1304 C.ar    1  UNL1        0.0039
     19 C         142.2732  136.5636  155.1636 C.3     1  UNL1        0.0249
     20 C         142.4597  138.0518  155.1441 C.3     1  UNL1        0.1089
     21 C         142.6462  139.5400  155.1246 C.3     1  UNL1        0.0249
     22 N         143.6824  137.8873  154.2908 N.3     1  UNL1       -0.3164
     23 H         144.0791  138.8041  154.0849 H       1  UNL1        0.1192
     24 H         143.4285  137.4231  153.4188 H       1  UNL1        0.1192
     25 N         142.5061  138.1572  162.9987 N.pl3   1  UNL1       -0.2980
     26 H         142.7821  137.2689  163.3212 H       1  UNL1        0.1536
     27 C         143.1703  139.3900  163.5363 C.ar    1  UNL1        0.0495
     28 C         144.4085  139.9225  162.8781 C.ar    1  UNL1        0.0169
     29 C         145.0727  141.1554  163.4159 C.ar    1  UNL1        0.0309
     30 C         144.4986  141.8556  164.6118 C.ar    1  UNL1        0.1402
     31 F         145.1628  143.0883  165.1495 F       1  UNL1       -0.2042
     32 C         143.2604  141.3230  165.2700 C.ar    1  UNL1        0.0309
     33 C         142.5963  140.0902  164.7323 C.ar    1  UNL1        0.0169
@<TRIPOS>BOND
     1    19    20    1
     2    20    21    1
     3    20    22    1
     4    20     1    1
     5     1     2    2
     6     1     3   am
     7     3     4    1
     8     4     5    1
     9     5     6    1
    10     6     7   ar
    11     7     8   ar
    12     8     9   ar
    13     9    12    1
    14    12    13   ar
    15    13    14   ar
    16    14    15   ar
    17    15    16    1
    18    15    17   ar
    19    17    18   ar
    20     9    10   ar
    21    10    25    1
    22    25    27    1
    23    27    28   ar
    24    28    29   ar
    25    29    30   ar
    26    30    31    1
    27    30    32   ar
    28    32    33   ar
    29     7    11    1
    30    11     3    1
    31    10     6   ar
    32    33    27   ar
    33    18    12   ar
    34    22    23    1
    35    22    24    1
    36    25    26    1
@<TRIPOS>MOLECULE
*****
 33 36 0 0 0
SMALL
GASTEIGER

@<TRIPOS>ATOM
      1 C         142.1982  140.7091  169.8301 C.2     1  UNL1        0.2383
      2 O         143.4453  140.0079  170.2805 O.2     1  UNL1       -0.2735
      3 N         141.8264  140.7187  168.3769 N.am    1  UNL1       -0.2695
      4 C         140.5792  141.4199  167.9265 C.3     1  UNL1        0.1184
      5 C         140.2074  141.4295  166.4733 C.3     1  UNL1        0.1299
      6 N         141.0827  140.7379  165.4706 N.ar    1  UNL1       -0.3005
      7 C         142.3298  140.0366  165.9211 C.ar    1  UNL1        0.1416
      8 N         142.9917  139.4454  164.7117 N.ar    1  UNL1       -0.2279
      9 C         142.1537  139.7812  163.5139 C.ar    1  UNL1        0.1125
     10 C         140.9738  140.5800  163.9829 C.ar    1  UNL1        0.1318
     11 C         142.7016  140.0271  167.3742 C.3     1  UNL1        0.1578
     12 C         142.4443  139.3874  162.0960 C.ar    1  UNL1        0.0205
     13 C         142.1643  137.9881  161.6338 C.ar    1  UNL1        0.0039
     14 C         142.4549  137.5943  160.2159 C.ar    1  UNL1        0.0297
     15 C         143.0256  138.5997  159.2603 C.ar    1  UNL1        0.1401
     16 F         143.3163  138.2059  157.8423 F       1  UNL1       -0.2042
     17 C         143.3057  139.9990  159.7224 C.ar    1  UNL1        0.0297
     18 C         143.0150  140.3928  161.1403 C.ar    1  UNL1        0.0039
     19 C         140.4729  140.1696  170.9400 C.3     1  UNL1        0.0249
     20 C         141.3229  141.4008  170.8328 C.3     1  UNL1        0.1089
     21 C         142.1729  142.6320  170.7255 C.3     1  UNL1        0.0249
     22 N         140.4475  142.0924  171.8355 N.3     1  UNL1       -0.3164
     23 H         140.7941  143.0386  171.9941 H       1  UNL1        0.1192
     24 H         140.4611  141.5738  172.7137 H       1  UNL1        0.1192
     25 N         139.8775  141.1252  163.1164 N.pl3   1  UNL1       -0.2980
     26 H         139.1939  140.5199  162.7483 H       1  UNL1        0.1536
     27 C         139.8228  142.5927  162.8106 C.ar    1  UNL1        0.0495
     28 C         140.9893  143.2651  162.1496 C.ar    1  UNL1        0.0169
     29 C         140.9345  144.7327  161.8438 C.ar    1  UNL1        0.0309
     30 C         139.7131  145.5277  162.1991 C.ar    1  UNL1        0.1402
     31 F         139.6584  146.9952  161.8934 F       1  UNL1       -0.2042
     32 C         138.5466  144.8552  162.8602 C.ar    1  UNL1        0.0309
     33 C         138.6014  143.3878  163.1659 C.ar    1  UNL1        0.0169
@<TRIPOS>BOND
     1    19    20    1
     2    20    21    1
     3    20    22    1
     4    20     1    1
     5     1     2    2
     6     1     3   am
     7     3     4    1
     8     4     5    1
     9     5     6    1
    10     6     7   ar
    11     7     8   ar
    12     8     9   ar
    13     9    12    1
    14    12    13   ar
    15    13    14   ar
    16    14    15   ar
    17    15    16    1
    18    15    17   ar
    19    17    18   ar
    20     9    10   ar
    21    10    25    1
    22    25    27    1
    23    27    28   ar
    24    28    29   ar
    25    29    30   ar
    26    30    31    1
    27    30    32   ar
    28    32    33   ar
    29     7    11    1
    30    11     3    1
    31    10     6   ar
    32    33    27   ar
    33    18    12   ar
    34    22    23    1
    35    22    24    1
    36    25    26    1
@<TRIPOS>MOLECULE
*****
 33 36 0 0 0
SMALL
GASTEIGER

@<TRIPOS>ATOM
      1 C         140.2759  141.7220  169.7734 C.2     1  UNL1        0.2383
      2 O         140.5119  143.0292  170.4702 O.2     1  UNL1       -0.2735
      3 N         140.2823  141.6591  168.2747 N.am    1  UNL1       -0.2695
      4 C         140.0463  140.3519  167.5780 C.3     1  UNL1        0.1184
      5 C         140.0526  140.2889  166.0793 C.3     1  UNL1        0.1299
      6 N         140.2950  141.5331  165.2774 N.ar    1  UNL1       -0.3005
      7 C         140.5310  142.8403  165.9742 C.ar    1  UNL1        0.1416
      8 N         140.7405  143.8930  164.9262 N.ar    1  UNL1       -0.2279
      9 C         140.6339  143.2363  163.5818 C.ar    1  UNL1        0.1125
     10 C         140.3586  141.7779  163.7989 C.ar    1  UNL1        0.1318
     11 C         140.5246  142.9033  167.4728 C.3     1  UNL1        0.1578
     12 C         140.7775  143.9183  162.2535 C.ar    1  UNL1        0.0205
     13 C         139.9280  145.1107  161.9270 C.ar    1  UNL1        0.0039
     14 C         140.0715  145.7927  160.5987 C.ar    1  UNL1        0.0297
     15 C         141.0646  145.2824  159.5971 C.ar    1  UNL1        0.1401
     16 F         141.2082  145.9644  158.2688 F       1  UNL1       -0.2042
     17 C         141.9142  144.0901  159.9237 C.ar    1  UNL1        0.0297
     18 C         141.7706  143.4080  161.2519 C.ar    1  UNL1        0.0039
     19 C         138.5630  140.5873  170.3008 C.3     1  UNL1        0.0249
     20 C         140.0336  140.4778  170.5753 C.3     1  UNL1        0.1089
     21 C         141.5041  140.3683  170.8499 C.3     1  UNL1        0.0249
     22 N         139.7912  139.2335  171.3773 N.3     1  UNL1       -0.3164
     23 H         140.6790  138.8813  171.7351 H       1  UNL1        0.1192
     24 H         139.3588  138.5255  170.7839 H       1  UNL1        0.1192
     25 N         140.1785  140.7454  162.7258 N.pl3   1  UNL1       -0.2980
     26 H         139.3165  140.6682  162.2566 H       1  UNL1        0.1536
     27 C         141.3118  139.8304  162.3676 C.ar    1  UNL1        0.0495
     28 C         142.6842  140.0855  162.9167 C.ar    1  UNL1        0.0169
     29 C         143.8175  139.1704  162.5584 C.ar    1  UNL1        0.0309
     30 C         143.5784  138.0003  161.6509 C.ar    1  UNL1        0.1402
     31 F         144.7117  137.0853  161.2927 F       1  UNL1       -0.2042
     32 C         142.2061  137.7451  161.1018 C.ar    1  UNL1        0.0309
     33 C         141.0728  138.6601  161.4601 C.ar    1  UNL1        0.0169
@<TRIPOS>BOND
     1    19    20    1
     2    20    21    1
     3    20    22    1
     4    20     1    1
     5     1     2    2
     6     1     3   am
     7     3     4    1
     8     4     5    1
     9     5     6    1
    10     6     7   ar
    11     7     8   ar
    12     8     9   ar
    13     9    12    1
    14    12    13   ar
    15    13    14   ar
    16    14    15   ar
    17    15    16    1
    18    15    17   ar
    19    17    18   ar
    20     9    10   ar
    21    10    25    1
    22    25    27    1
    23    27    28   ar
    24    28    29   ar
    25    29    30   ar
    26    30    31    1
    27    30    32   ar
    28    32    33   ar
    29     7    11    1
    30    11     3    1
    31    10     6   ar
    32    33    27   ar
    33    18    12   ar
    34    22    23    1
    35    22    24    1
    36    25    26    1
@<TRIPOS>MOLECULE
*****
 33 36 0 0 0
SMALL
GASTEIGER

@<TRIPOS>ATOM
      1 C         143.4468  142.7311  158.7977 C.2     1  UNL1        0.2383
      2 O         144.9410  142.7437  158.6678 O.2     1  UNL1       -0.2735
      3 N         142.8121  142.4696  160.1315 N.am    1  UNL1       -0.2695
      4 C         141.3178  142.4570  160.2614 C.3     1  UNL1        0.1184
      5 C         140.6832  142.1955  161.5952 C.3     1  UNL1        0.1299
      6 N         141.5428  141.9467  162.7989 N.ar    1  UNL1       -0.3005
      7 C         143.0370  141.9593  162.6689 C.ar    1  UNL1        0.1416
      8 N         143.6224  141.6829  164.0221 N.ar    1  UNL1       -0.2279
      9 C         142.4899  141.4995  164.9884 C.ar    1  UNL1        0.1125
     10 C         141.2046  141.6625  164.2324 C.ar    1  UNL1        0.1318
     11 C         143.6717  142.2208  161.3352 C.3     1  UNL1        0.1578
     12 C         142.6197  141.2049  166.4535 C.ar    1  UNL1        0.0205
     13 C         142.4120  139.8079  166.9588 C.ar    1  UNL1        0.0039
     14 C         142.5419  139.5132  168.4238 C.ar    1  UNL1        0.0297
     15 C         142.8794  140.6155  169.3834 C.ar    1  UNL1        0.1401
     16 F         143.0093  140.3208  170.8485 F       1  UNL1       -0.2042
     17 C         143.0872  142.0124  168.8781 C.ar    1  UNL1        0.0297
     18 C         142.9573  142.3071  167.4131 C.ar    1  UNL1        0.0039
     19 C         142.6198  141.5162  157.2680 C.3     1  UNL1        0.0249
     20 C         142.5871  142.9800  157.5940 C.3     1  UNL1        0.1089
     21 C         142.5545  144.4437  157.9199 C.3     1  UNL1        0.0249
     22 N         141.7275  143.2288  156.3901 N.3     1  UNL1       -0.3164
     23 H         141.5117  144.2237  156.3262 H       1  UNL1        0.1192
     24 H         140.8609  142.6977  156.4755 H       1  UNL1        0.1192
     25 N         139.8236  141.5595  164.8087 N.pl3   1  UNL1       -0.2980
     26 H         139.2712  142.3680  164.9107 H       1  UNL1        0.1536
     27 C         139.2841  140.2246  165.2295 C.ar    1  UNL1        0.0495
     28 C         139.4794  139.0255  164.3498 C.ar    1  UNL1        0.0169
     29 C         138.9399  137.6906  164.7708 C.ar    1  UNL1        0.0309
     30 C         138.2051  137.5549  166.0714 C.ar    1  UNL1        0.1402
     31 F         137.6657  136.2201  166.4923 F       1  UNL1       -0.2042
     32 C         138.0098  138.7541  166.9511 C.ar    1  UNL1        0.0309
     33 C         138.5493  140.0889  166.5302 C.ar    1  UNL1        0.0169
@<TRIPOS>BOND
     1    19    20    1
     2    20    21    1
     3    20    22    1
     4    20     1    1
     5     1     2    2
     6     1     3   am
     7     3     4    1
     8     4     5    1
     9     5     6    1
    10     6     7   ar
    11     7     8   ar
    12     8     9   ar
    13     9    12    1
    14    12    13   ar
    15    13    14   ar
    16    14    15   ar
    17    15    16    1
    18    15    17   ar
    19    17    18   ar
    20     9    10   ar
    21    10    25    1
    22    25    27    1
    23    27    28   ar
    24    28    29   ar
    25    29    30   ar
    26    30    31    1
    27    30    32   ar
    28    32    33   ar
    29     7    11    1
    30    11     3    1
    31    10     6   ar
    32    33    27   ar
    33    18    12   ar
    34    22    23    1
    35    22    24    1
    36    25    26    1
@<TRIPOS>MOLECULE
*****
 33 36 0 0 0
SMALL
GASTEIGER

@<TRIPOS>ATOM
      1 C         145.3797  141.1403  156.1496 C.2     1  UNL1        0.2383
      2 O         145.6148  139.8141  155.4894 O.2     1  UNL1       -0.2735
      3 N         144.5673  141.2181  157.4082 N.am    1  UNL1       -0.2695
      4 C         144.3322  142.5442  158.0684 C.3     1  UNL1        0.1184
      5 C         143.5197  142.6220  159.3269 C.3     1  UNL1        0.1299
      6 N         142.9423  141.3736  159.9252 N.ar    1  UNL1       -0.3005
      7 C         143.1774  140.0474  159.2650 C.ar    1  UNL1        0.1416
      8 N         142.4869  138.9947  160.0805 N.ar    1  UNL1       -0.2279
      9 C         141.8250  139.6703  161.2447 C.ar    1  UNL1        0.1125
     10 C         142.1065  141.1406  161.1487 C.ar    1  UNL1        0.1318
     11 C         143.9899  139.9696  158.0064 C.3     1  UNL1        0.1578
     12 C         141.0225  138.9944  162.3168 C.ar    1  UNL1        0.0205
     13 C         139.5274  139.1149  162.3230 C.ar    1  UNL1        0.0039
     14 C         138.7249  138.4391  163.3950 C.ar    1  UNL1        0.0297
     15 C         139.4176  137.6427  164.4608 C.ar    1  UNL1        0.1401
     16 F         138.6151  136.9668  165.5329 F       1  UNL1       -0.2042
     17 C         140.9127  137.5222  164.4546 C.ar    1  UNL1        0.0297
     18 C         141.7152  138.1981  163.3826 C.ar    1  UNL1        0.0039
     19 C         147.2023  142.2036  156.3669 C.3     1  UNL1        0.0249
     20 C         145.9571  142.3887  155.5513 C.3     1  UNL1        0.1089
     21 C         144.7119  142.5738  154.7358 C.3     1  UNL1        0.0249
     22 N         146.5346  143.6372  154.9530 N.3     1  UNL1       -0.3164
     23 H         145.8672  144.0389  154.2946 H       1  UNL1        0.1192
     24 H         147.4005  143.4108  154.4639 H       1  UNL1        0.1192
     25 N         141.6350  142.1930  162.1079 N.pl3   1  UNL1       -0.2980
     26 H         140.7111  142.5289  162.0549 H       1  UNL1        0.1536
     27 C         142.5710  142.7336  163.1478 C.ar    1  UNL1        0.0495
     28 C         143.2077  141.8054  164.1392 C.ar    1  UNL1        0.0169
     29 C         144.1438  142.3461  165.1791 C.ar    1  UNL1        0.0309
     30 C         144.4432  143.8152  165.2276 C.ar    1  UNL1        0.1402
     31 F         145.3792  144.3558  166.2675 F       1  UNL1       -0.2042
     32 C         143.8065  144.7434  164.2362 C.ar    1  UNL1        0.0309
     33 C         142.8704  144.2027  163.1964 C.ar    1  UNL1        0.0169
@<TRIPOS>BOND
     1    19    20    1
     2    20    21    1
     3    20    22    1
     4    20     1    1
     5     1     2    2
     6     1     3   am
     7     3     4    1
     8     4     5    1
     9     5     6    1
    10     6     7   ar
    11     7     8   ar
    12     8     9   ar
    13     9    12    1
    14    12    13   ar
    15    13    14   ar
    16    14    15   ar
    17    15    16    1
    18    15    17   ar
    19    17    18   ar
    20     9    10   ar
    21    10    25    1
    22    25    27    1
    23    27    28   ar
    24    28    29   ar
    25    29    30   ar
    26    30    31    1
    27    30    32   ar
    28    32    33   ar
    29     7    11    1
    30    11     3    1
    31    10     6   ar
    32    33    27   ar
    33    18    12   ar
    34    22    23    1
    35    22    24    1
    36    25    26    1
@<TRIPOS>MOLECULE
*****
 33 36 0 0 0
SMALL
GASTEIGER

@<TRIPOS>ATOM
      1 C         142.2018  138.3878  156.4264 C.2     1  UNL1        0.2383
      2 O         141.6396  139.2351  155.3237 O.2     1  UNL1       -0.2735
      3 N         142.0080  138.7937  157.8574 N.am    1  UNL1       -0.2695
      4 C         142.5701  137.9464  158.9600 C.3     1  UNL1        0.1184
      5 C         142.3764  138.3524  160.3910 C.3     1  UNL1        0.1299
      6 N         141.6204  139.6056  160.7193 N.ar    1  UNL1       -0.3005
      7 C         141.0583  140.4530  159.6166 C.ar    1  UNL1        0.1416
      8 N         140.3630  141.6260  160.2418 N.ar    1  UNL1       -0.2279
      9 C         140.4955  141.5035  161.7309 C.ar    1  UNL1        0.1125
     10 C         141.2726  140.2549  162.0260 C.ar    1  UNL1        0.1318
     11 C         141.2521  140.0470  158.1856 C.3     1  UNL1        0.1578
     12 C         139.9472  142.4615  162.7466 C.ar    1  UNL1        0.0205
     13 C         140.8434  143.4933  163.3649 C.ar    1  UNL1        0.0039
     14 C         140.2952  144.4513  164.3805 C.ar    1  UNL1        0.0297
     15 C         138.8507  144.3775  164.7780 C.ar    1  UNL1        0.1401
     16 F         138.3024  145.3355  165.7937 F       1  UNL1       -0.2042
     17 C         137.9545  143.3457  164.1597 C.ar    1  UNL1        0.0297
     18 C         138.5027  142.3877  163.1440 C.ar    1  UNL1        0.0039
     19 C         141.7488  136.3155  156.4412 C.3     1  UNL1        0.0249
     20 C         142.9577  137.1345  156.0981 C.3     1  UNL1        0.1089
     21 C         144.1666  137.9535  155.7551 C.3     1  UNL1        0.0249
     22 N         143.7136  135.8811  155.7699 N.3     1  UNL1       -0.3164
     23 H         144.6600  136.1221  155.4755 H       1  UNL1        0.1192
     24 H         143.2387  135.3854  155.0154 H       1  UNL1        0.1192
     25 N         141.6379  139.7451  163.3885 N.pl3   1  UNL1       -0.2980
     26 H         142.5841  139.6220  163.6307 H       1  UNL1        0.1536
     27 C         140.5614  139.4227  164.3821 C.ar    1  UNL1        0.0495
     28 C         140.3516  140.3083  165.5745 C.ar    1  UNL1        0.0169
     29 C         139.2750  139.9858  166.5681 C.ar    1  UNL1        0.0309
     30 C         138.4084  138.7777  166.3693 C.ar    1  UNL1        0.1402
     31 F         137.3319  138.4553  167.3629 F       1  UNL1       -0.2042
     32 C         138.6182  137.8921  165.1770 C.ar    1  UNL1        0.0309
     33 C         139.6947  138.2146  164.1834 C.ar    1  UNL1        0.0169
@<TRIPOS>BOND
     1    19    20    1
     2    20    21    1
     3    20    22    1
     4    20     1    1
     5     1     2    2
     6     1     3   am
     7     3     4    1
     8     4     5    1
     9     5     6    1
    10     6     7   ar
    11     7     8   ar
    12     8     9   ar
    13     9    12    1
    14    12    13   ar
    15    13    14   ar
    16    14    15   ar
    17    15    16    1
    18    15    17   ar
    19    17    18   ar
    20     9    10   ar
    21    10    25    1
    22    25    27    1
    23    27    28   ar
    24    28    29   ar
    25    29    30   ar
    26    30    31    1
    27    30    32   ar
    28    32    33   ar
    29     7    11    1
    30    11     3    1
    31    10     6   ar
    32    33    27   ar
    33    18    12   ar
    34    22    23    1
    35    22    24    1
    36    25    26    1
@<TRIPOS>MOLECULE
*****
 33 36 0 0 0
SMALL
GASTEIGER

@<TRIPOS>ATOM
      1 C         140.2000  140.8588  169.6274 C.2     1  UNL1        0.2383
      2 O         139.0974  139.9247  170.0293 O.2     1  UNL1       -0.2735
      3 N         140.4818  141.1055  168.1749 N.am    1  UNL1       -0.2695
      4 C         141.5844  142.0396  167.7729 C.3     1  UNL1        0.1184
      5 C         141.8662  142.2863  166.3204 C.3     1  UNL1        0.1299
      6 N         141.0455  141.5988  165.2699 N.ar    1  UNL1       -0.3005
      7 C         139.9429  140.6646  165.6719 C.ar    1  UNL1        0.1416
      8 N         139.3062  140.1338  164.4217 N.ar    1  UNL1       -0.2279
      9 C         140.0154  140.7399  163.2471 C.ar    1  UNL1        0.1125
     10 C         141.0903  141.6453  163.7713 C.ar    1  UNL1        0.1318
     11 C         139.6611  140.4180  167.1244 C.3     1  UNL1        0.1578
     12 C         139.7042  140.4854  161.8019 C.ar    1  UNL1        0.0205
     13 C         140.5006  139.4756  161.0298 C.ar    1  UNL1        0.0039
     14 C         140.1896  139.2210  159.5847 C.ar    1  UNL1        0.0297
     15 C         139.0821  139.9762  158.9117 C.ar    1  UNL1        0.1401
     16 F         138.7709  139.7217  157.4665 F       1  UNL1       -0.2042
     17 C         138.2857  140.9860  159.6837 C.ar    1  UNL1        0.0297
     18 C         138.5967  141.2406  161.1288 C.ar    1  UNL1        0.0039
     19 C         140.0516  142.6912  170.6858 C.3     1  UNL1        0.0249
     20 C         141.0207  141.5464  170.6779 C.3     1  UNL1        0.1089
     21 C         141.9898  140.4015  170.6701 C.3     1  UNL1        0.0249
     22 N         141.8415  142.2340  171.7285 N.3     1  UNL1       -0.3164
     23 H         142.6488  141.6558  171.9616 H       1  UNL1        0.1192
     24 H         141.2737  142.3776  172.5636 H       1  UNL1        0.1192
     25 N         142.0428  142.4551  162.9425 N.pl3   1  UNL1       -0.2980
     26 H         143.0123  142.3870  163.0993 H       1  UNL1        0.1536
     27 C         141.5181  143.3687  161.8748 C.ar    1  UNL1        0.0495
     28 C         141.8356  143.0986  160.4339 C.ar    1  UNL1        0.0169
     29 C         141.3109  144.0123  159.3661 C.ar    1  UNL1        0.0309
     30 C         140.4687  145.1961  159.7394 C.ar    1  UNL1        0.1402
     31 F         139.9440  146.1097  158.6717 F       1  UNL1       -0.2042
     32 C         140.1512  145.4663  161.1803 C.ar    1  UNL1        0.0309
     33 C         140.6759  144.5526  162.2479 C.ar    1  UNL1        0.0169
@<TRIPOS>BOND
     1    19    20    1
     2    20    21    1
     3    20    22    1
     4    20     1    1
     5     1     2    2
     6     1     3   am
     7     3     4    1
     8     4     5    1
     9     5     6    1
    10     6     7   ar
    11     7     8   ar
    12     8     9   ar
    13     9    12    1
    14    12    13   ar
    15    13    14   ar
    16    14    15   ar
    17    15    16    1
    18    15    17   ar
    19    17    18   ar
    20     9    10   ar
    21    10    25    1
    22    25    27    1
    23    27    28   ar
    24    28    29   ar
    25    29    30   ar
    26    30    31    1
    27    30    32   ar
    28    32    33   ar
    29     7    11    1
    30    11     3    1
    31    10     6   ar
    32    33    27   ar
    33    18    12   ar
    34    22    23    1
    35    22    24    1
    36    25    26    1
@<TRIPOS>MOLECULE
*****
 33 36 0 0 0
SMALL
GASTEIGER

@<TRIPOS>ATOM
      1 C         141.3049  139.8099  169.5446 C.2     1  UNL1        0.2383
      2 O         139.9473  139.6399  170.1594 O.2     1  UNL1       -0.2735
      3 N         141.4384  140.0030  168.0631 N.am    1  UNL1       -0.2695
      4 C         142.7960  140.1730  167.4483 C.3     1  UNL1        0.1184
      5 C         142.9296  140.3660  165.9668 C.3     1  UNL1        0.1299
      6 N         141.7056  140.3890  165.1001 N.ar    1  UNL1       -0.3005
      7 C         140.3480  140.2190  165.7149 C.ar    1  UNL1        0.1416
      8 N         139.3296  140.2851  164.6155 N.ar    1  UNL1       -0.2279
      9 C         140.0579  140.4960  163.3212 C.ar    1  UNL1        0.1125
     10 C         141.5263  140.5602  163.6207 C.ar    1  UNL1        0.1318
     11 C         140.2144  140.0260  167.1964 C.3     1  UNL1        0.1578
     12 C         139.4283  140.6207  161.9654 C.ar    1  UNL1        0.0205
     13 C         139.1502  141.9776  161.3896 C.ar    1  UNL1        0.0039
     14 C         138.5206  142.1024  160.0339 C.ar    1  UNL1        0.0297
     15 C         138.1692  140.8703  159.2539 C.ar    1  UNL1        0.1401
     16 F         137.5397  140.9950  157.8981 F       1  UNL1       -0.2042
     17 C         138.4474  139.5134  159.8297 C.ar    1  UNL1        0.0297
     18 C         139.0769  139.3886  161.1854 C.ar    1  UNL1        0.0039
     19 C         142.3356  141.2414  170.7230 C.3     1  UNL1        0.0249
     20 C         142.5289  139.7869  170.4113 C.3     1  UNL1        0.1089
     21 C         142.7222  138.3325  170.0997 C.3     1  UNL1        0.0249
     22 N         143.7529  139.7640  171.2781 N.3     1  UNL1       -0.3164
     23 H         144.1543  138.8263  171.2748 H       1  UNL1        0.1192
     24 H         143.4991  140.0218  172.2318 H       1  UNL1        0.1192
     25 N         142.6229  140.7604  162.6171 N.pl3   1  UNL1       -0.2980
     26 H         143.2929  141.4685  162.7547 H       1  UNL1        0.1536
     27 C         142.6988  139.8819  161.4037 C.ar    1  UNL1        0.0495
     28 C         142.9411  138.4096  161.5576 C.ar    1  UNL1        0.0169
     29 C         143.0169  137.5310  160.3441 C.ar    1  UNL1        0.0309
     30 C         142.8505  138.1248  158.9767 C.ar    1  UNL1        0.1402
     31 F         142.9263  137.2462  157.7634 F       1  UNL1       -0.2042
     32 C         142.6082  139.5971  158.8228 C.ar    1  UNL1        0.0309
     33 C         142.5323  140.4756  160.0362 C.ar    1  UNL1        0.0169
@<TRIPOS>BOND
     1    19    20    1
     2    20    21    1
     3    20    22    1
     4    20     1    1
     5     1     2    2
     6     1     3   am
     7     3     4    1
     8     4     5    1
     9     5     6    1
    10     6     7   ar
    11     7     8   ar
    12     8     9   ar
    13     9    12    1
    14    12    13   ar
    15    13    14   ar
    16    14    15   ar
    17    15    16    1
    18    15    17   ar
    19    17    18   ar
    20     9    10   ar
    21    10    25    1
    22    25    27    1
    23    27    28   ar
    24    28    29   ar
    25    29    30   ar
    26    30    31    1
    27    30    32   ar
    28    32    33   ar
    29     7    11    1
    30    11     3    1
    31    10     6   ar
    32    33    27   ar
    33    18    12   ar
    34    22    23    1
    35    22    24    1
    36    25    26    1
