@<TRIPOS>MOLECULE
*****
 28 30 0 0 0
SMALL
GASTEIGER

@<TRIPOS>ATOM
      1 C         139.5762  138.0065  161.7279 C.3     1  UNL1        0.0066
      2 C         139.1001  139.3431  162.2146 C.3     1  UNL1        0.0454
      3 C         139.3190  139.7423  163.6438 C.ar    1  UNL1       -0.0207
      4 C         138.3556  139.2957  164.7032 C.ar    1  UNL1       -0.0042
      5 C         138.5745  139.6949  166.1324 C.ar    1  UNL1       -0.0003
      6 C         139.7567  140.5409  166.5022 C.ar    1  UNL1        0.0014
      7 C         140.7200  140.9875  165.4428 C.ar    1  UNL1       -0.0003
      8 C         140.5012  140.5883  164.0136 C.ar    1  UNL1       -0.0042
      9 C         139.9755  140.9401  167.9315 C.ar    1  UNL1        0.0175
     10 C         139.9651  139.8989  169.0111 C.ar    1  UNL1        0.0064
     11 C         140.1840  140.2981  170.4404 C.ar    1  UNL1        0.0608
     12 C         140.4131  141.7387  170.7900 C.ar    1  UNL1        0.2610
     13 O         140.6319  142.1380  172.2192 O.2     1  UNL1       -0.2670
     14 N         140.4235  142.7800  169.7103 N.ar    1  UNL1       -0.2922
     15 C         140.6526  144.2206  170.0599 C.3     1  UNL1        0.1336
     16 C         140.2046  142.3807  168.2811 C.ar    1  UNL1        0.0783
     17 C         138.4053  140.2805  161.2720 C.3     1  UNL1        0.1325
     18 N         136.9923  140.0076  160.8488 N.3     1  UNL1       -0.3148
     19 H         136.6634  139.1509  161.2940 H       1  UNL1        0.1192
     20 H         136.9558  139.8997  159.8351 H       1  UNL1        0.1192
     21 C         139.1234  141.4906  160.7526 C.2     1  UNL1        0.2401
     22 O         139.9748  141.3869  159.5219 O.2     1  UNL1       -0.2734
     23 N         138.9901  142.8046  161.4638 N.am    1  UNL1       -0.2756
     24 C         138.1787  143.0601  162.6992 C.3     1  UNL1        0.0964
     25 C         138.3320  144.5071  163.0634 C.3     1  UNL1        0.0585
     26 C         139.2381  145.1459  162.0531 C.3     1  UNL1        0.1824
     27 F         139.6630  146.5844  162.0345 F       1  UNL1       -0.2354
     28 C         139.6449  144.0937  161.0645 C.3     1  UNL1        0.1286
@<TRIPOS>BOND
     1     2     1    1
     2     2     3    1
     3     3     4   ar
     4     4     5   ar
     5     5     6   ar
     6     6     9    1
     7     9    10   ar
     8    10    11   ar
     9    11    12   ar
    10    12    13    2
    11    12    14   ar
    12    14    15    1
    13    14    16   ar
    14     6     7   ar
    15     7     8   ar
    16     2    17    1
    17    17    18    1
    18    17    21    1
    19    21    22    2
    20    21    23   am
    21    23    24    1
    22    24    25    1
    23    25    26    1
    24    26    27    1
    25    26    28    1
    26     8     3   ar
    27    28    23    1
    28    16     9   ar
    29    18    19    1
    30    18    20    1
@<TRIPOS>MOLECULE
*****
 28 30 0 0 0
SMALL
GASTEIGER

@<TRIPOS>ATOM
      1 C         141.5323  137.4942  161.9324 C.3     1  UNL1        0.0066
      2 C         142.3358  138.6304  162.4923 C.3     1  UNL1        0.0454
      3 C         142.0565  139.1359  163.8767 C.ar    1  UNL1       -0.0207
      4 C         140.9491  140.1213  164.1061 C.ar    1  UNL1       -0.0042
      5 C         140.6699  140.6268  165.4905 C.ar    1  UNL1       -0.0003
      6 C         141.4980  140.1468  166.6454 C.ar    1  UNL1        0.0014
      7 C         142.6054  139.1615  166.4160 C.ar    1  UNL1       -0.0003
      8 C         142.8846  138.6560  165.0316 C.ar    1  UNL1       -0.0042
      9 C         141.2187  140.6524  168.0298 C.ar    1  UNL1        0.0175
     10 C         140.0173  140.1590  168.7802 C.ar    1  UNL1        0.0064
     11 C         139.7380  140.6646  170.1646 C.ar    1  UNL1        0.0608
     12 C         140.6601  141.6634  170.7986 C.ar    1  UNL1        0.2610
     13 O         140.3809  142.1690  172.1829 O.2     1  UNL1       -0.2670
     14 N         141.8616  142.1568  170.0481 N.ar    1  UNL1       -0.2922
     15 C         142.7838  143.1557  170.6820 C.3     1  UNL1        0.1336
     16 C         142.1409  141.6513  168.6637 C.ar    1  UNL1        0.0783
     17 C         143.4186  139.2611  161.6678 C.3     1  UNL1        0.1325
     18 N         144.6468  138.4753  161.3152 N.3     1  UNL1       -0.3148
     19 H         144.5781  137.5395  161.7152 H       1  UNL1        0.1192
     20 H         145.4706  138.9457  161.6901 H       1  UNL1        0.1192
     21 C         143.2732  140.6775  161.1959 C.2     1  UNL1        0.2401
     22 O         142.7148  140.9603  159.8327 O.2     1  UNL1       -0.2734
     23 N         143.6863  141.8111  162.0872 N.am    1  UNL1       -0.2756
     24 C         144.2578  141.6837  163.4682 C.3     1  UNL1        0.0964
     25 C         144.5250  143.0650  163.9885 C.3     1  UNL1        0.0585
     26 C         144.1187  144.0460  162.9290 C.3     1  UNL1        0.1824
     27 F         144.2141  145.5398  163.0273 F       1  UNL1       -0.2354
     28 C         143.6004  143.2710  161.7540 C.3     1  UNL1        0.1286
@<TRIPOS>BOND
     1     2     1    1
     2     2     3    1
     3     3     4   ar
     4     4     5   ar
     5     5     6   ar
     6     6     9    1
     7     9    10   ar
     8    10    11   ar
     9    11    12   ar
    10    12    13    2
    11    12    14   ar
    12    14    15    1
    13    14    16   ar
    14     6     7   ar
    15     7     8   ar
    16     2    17    1
    17    17    18    1
    18    17    21    1
    19    21    22    2
    20    21    23   am
    21    23    24    1
    22    24    25    1
    23    25    26    1
    24    26    27    1
    25    26    28    1
    26     8     3   ar
    27    28    23    1
    28    16     9   ar
    29    18    19    1
    30    18    20    1
@<TRIPOS>MOLECULE
*****
 28 30 0 0 0
SMALL
GASTEIGER

@<TRIPOS>ATOM
      1 C         144.3361  140.3200  161.7138 C.3     1  UNL1        0.0066
      2 C         143.3864  139.4555  162.4888 C.3     1  UNL1        0.0454
      3 C         142.9841  139.8439  163.8807 C.ar    1  UNL1       -0.0207
      4 C         142.1521  141.0715  164.1059 C.ar    1  UNL1       -0.0042
      5 C         141.7498  141.4598  165.4978 C.ar    1  UNL1       -0.0003
      6 C         142.1796  140.6206  166.6644 C.ar    1  UNL1        0.0014
      7 C         143.0116  139.3931  166.4392 C.ar    1  UNL1       -0.0003
      8 C         143.4139  139.0047  165.0473 C.ar    1  UNL1       -0.0042
      9 C         141.7773  141.0091  168.0563 C.ar    1  UNL1        0.0175
     10 C         141.8701  140.0090  169.1704 C.ar    1  UNL1        0.0064
     11 C         141.4678  140.3975  170.5624 C.ar    1  UNL1        0.0608
     12 C         140.9727  141.7859  170.8401 C.ar    1  UNL1        0.2610
     13 O         140.5704  142.1743  172.2319 O.2     1  UNL1       -0.2670
     14 N         140.8799  142.7859  169.7258 N.ar    1  UNL1       -0.2922
     15 C         140.3849  144.1744  170.0035 C.3     1  UNL1        0.1336
     16 C         141.2822  142.3975  168.3340 C.ar    1  UNL1        0.0783
     17 C         142.8390  138.2026  161.8719 C.3     1  UNL1        0.1325
     18 N         143.7415  137.2960  161.0886 N.3     1  UNL1       -0.3148
     19 H         144.6854  137.6824  161.0778 H       1  UNL1        0.1192
     20 H         143.3960  137.2157  160.1323 H       1  UNL1        0.1192
     21 C         141.3890  137.8563  162.0383 C.2     1  UNL1        0.2401
     22 O         140.9872  136.7174  162.9280 O.2     1  UNL1       -0.2734
     23 N         140.3408  138.6489  161.3151 N.am    1  UNL1       -0.2756
     24 C         140.5896  139.8086  160.3968 C.3     1  UNL1        0.0964
     25 C         139.2623  140.2974  159.8974 C.3     1  UNL1        0.0585
     26 C         138.1932  139.4399  160.5071 C.3     1  UNL1        0.1824
     27 F         136.7168  139.5771  160.2804 F       1  UNL1       -0.2354
     28 C         138.8598  138.4211  161.3833 C.3     1  UNL1        0.1286
@<TRIPOS>BOND
     1     2     1    1
     2     2     3    1
     3     3     4   ar
     4     4     5   ar
     5     5     6   ar
     6     6     9    1
     7     9    10   ar
     8    10    11   ar
     9    11    12   ar
    10    12    13    2
    11    12    14   ar
    12    14    15    1
    13    14    16   ar
    14     6     7   ar
    15     7     8   ar
    16     2    17    1
    17    17    18    1
    18    17    21    1
    19    21    22    2
    20    21    23   am
    21    23    24    1
    22    24    25    1
    23    25    26    1
    24    26    27    1
    25    26    28    1
    26     8     3   ar
    27    28    23    1
    28    16     9   ar
    29    18    19    1
    30    18    20    1
@<TRIPOS>MOLECULE
*****
 28 30 0 0 0
SMALL
GASTEIGER

@<TRIPOS>ATOM
      1 C         144.8389  141.1601  161.6491 C.3     1  UNL1        0.0066
      2 C         143.8808  140.2170  162.3142 C.3     1  UNL1        0.0454
      3 C         143.3966  140.4976  163.7060 C.ar    1  UNL1       -0.0207
      4 C         143.5120  139.4436  164.7670 C.ar    1  UNL1       -0.0042
      5 C         143.0278  139.7242  166.1586 C.ar    1  UNL1       -0.0003
      6 C         142.4282  141.0588  166.4893 C.ar    1  UNL1        0.0014
      7 C         142.3128  142.1128  165.4283 C.ar    1  UNL1       -0.0003
      8 C         142.7970  141.8322  164.0366 C.ar    1  UNL1       -0.0042
      9 C         141.9440  141.3394  167.8811 C.ar    1  UNL1        0.0175
     10 C         142.7645  142.1918  168.8030 C.ar    1  UNL1        0.0064
     11 C         142.2803  142.4724  170.1948 C.ar    1  UNL1        0.0608
     12 C         140.9756  141.9005  170.6645 C.ar    1  UNL1        0.2610
     13 O         140.4914  142.1811  172.0561 O.2     1  UNL1       -0.2670
     14 N         140.1551  141.0481  169.7424 N.ar    1  UNL1       -0.2922
     15 C         138.8503  140.4762  170.2121 C.3     1  UNL1        0.1336
     16 C         140.6393  140.7675  168.3507 C.ar    1  UNL1        0.0783
     17 C         143.4068  138.9933  161.5877 C.3     1  UNL1        0.1325
     18 N         144.2247  137.7363  161.6228 N.3     1  UNL1       -0.3148
     19 H         145.0637  137.8921  162.1815 H       1  UNL1        0.1192
     20 H         144.4919  137.4779  160.6729 H       1  UNL1        0.1192
     21 C         142.1150  139.0265  160.8261 C.2     1  UNL1        0.2401
     22 O         142.0912  139.5230  159.4108 O.2     1  UNL1       -0.2734
     23 N         140.8469  138.5631  161.4797 N.am    1  UNL1       -0.2756
     24 C         140.7159  138.0433  162.8807 C.3     1  UNL1        0.0964
     25 C         139.2752  137.6972  163.1139 C.3     1  UNL1        0.0585
     26 C         138.5156  138.0030  161.8572 C.3     1  UNL1        0.1824
     27 F         137.0433  137.8079  161.6472 F       1  UNL1       -0.2354
     28 C         139.4870  138.5382  160.8472 C.3     1  UNL1        0.1286
@<TRIPOS>BOND
     1     2     1    1
     2     2     3    1
     3     3     4   ar
     4     4     5   ar
     5     5     6   ar
     6     6     9    1
     7     9    10   ar
     8    10    11   ar
     9    11    12   ar
    10    12    13    2
    11    12    14   ar
    12    14    15    1
    13    14    16   ar
    14     6     7   ar
    15     7     8   ar
    16     2    17    1
    17    17    18    1
    18    17    21    1
    19    21    22    2
    20    21    23   am
    21    23    24    1
    22    24    25    1
    23    25    26    1
    24    26    27    1
    25    26    28    1
    26     8     3   ar
    27    28    23    1
    28    16     9   ar
    29    18    19    1
    30    18    20    1
@<TRIPOS>MOLECULE
*****
 28 30 0 0 0
SMALL
GASTEIGER

@<TRIPOS>ATOM
      1 C         143.7386  138.1018  166.6612 C.3     1  UNL1        0.0066
      2 C         142.7839  139.1937  167.0437 C.3     1  UNL1        0.0454
      3 C         142.3450  140.1988  166.0204 C.ar    1  UNL1       -0.0207
      4 C         143.0250  141.5334  165.9401 C.ar    1  UNL1       -0.0042
      5 C         142.5861  142.5384  164.9168 C.ar    1  UNL1       -0.0003
      6 C         141.4671  142.2088  163.9737 C.ar    1  UNL1        0.0014
      7 C         140.7871  140.8743  164.0540 C.ar    1  UNL1       -0.0003
      8 C         141.2260  139.8693  165.0773 C.ar    1  UNL1       -0.0042
      9 C         141.0281  143.2139  162.9504 C.ar    1  UNL1        0.0175
     10 C         140.9086  144.6617  163.3242 C.ar    1  UNL1        0.0064
     11 C         140.4697  145.6668  162.3008 C.ar    1  UNL1        0.0608
     12 C         140.1503  145.2241  160.9037 C.ar    1  UNL1        0.2610
     13 O         139.7114  146.2291  159.8804 O.2     1  UNL1       -0.2670
     14 N         140.2698  143.7762  160.5299 N.ar    1  UNL1       -0.2922
     15 C         139.9505  143.3335  159.1328 C.3     1  UNL1        0.1336
     16 C         140.7088  142.7712  161.5532 C.ar    1  UNL1        0.0783
     17 C         142.2682  139.2806  168.4496 C.3     1  UNL1        0.1325
     18 N         142.9773  138.5554  169.5548 N.3     1  UNL1       -0.3148
     19 H         143.7823  138.0583  169.1736 H       1  UNL1        0.1192
     20 H         142.3391  137.8877  169.9876 H       1  UNL1        0.1192
     21 C         141.0434  140.0926  168.7503 C.2     1  UNL1        0.2401
     22 O         139.6810  139.5071  168.5236 O.2     1  UNL1       -0.2734
     23 N         141.1808  141.4901  169.2777 N.am    1  UNL1       -0.2756
     24 C         142.4700  142.2057  169.5532 C.3     1  UNL1        0.0964
     25 C         142.1392  143.5752  170.0680 C.3     1  UNL1        0.0585
     26 C         140.6455  143.7060  170.1107 C.3     1  UNL1        0.1824
     27 F         139.8788  144.9134  170.5625 F       1  UNL1       -0.2354
     28 C         140.0533  142.4173  169.6223 C.3     1  UNL1        0.1286
@<TRIPOS>BOND
     1     2     1    1
     2     2     3    1
     3     3     4   ar
     4     4     5   ar
     5     5     6   ar
     6     6     9    1
     7     9    10   ar
     8    10    11   ar
     9    11    12   ar
    10    12    13    2
    11    12    14   ar
    12    14    15    1
    13    14    16   ar
    14     6     7   ar
    15     7     8   ar
    16     2    17    1
    17    17    18    1
    18    17    21    1
    19    21    22    2
    20    21    23   am
    21    23    24    1
    22    24    25    1
    23    25    26    1
    24    26    27    1
    25    26    28    1
    26     8     3   ar
    27    28    23    1
    28    16     9   ar
    29    18    19    1
    30    18    20    1
@<TRIPOS>MOLECULE
*****
 28 30 0 0 0
SMALL
GASTEIGER

@<TRIPOS>ATOM
      1 C         141.5203  145.2120  161.4922 C.3     1  UNL1        0.0066
      2 C         140.7526  144.0034  161.9392 C.3     1  UNL1        0.0454
      3 C         140.7629  143.6004  163.3841 C.ar    1  UNL1       -0.0207
      4 C         141.8149  142.6599  163.8929 C.ar    1  UNL1       -0.0042
      5 C         141.8252  142.2570  165.3376 C.ar    1  UNL1       -0.0003
      6 C         140.7835  142.7944  166.2736 C.ar    1  UNL1        0.0014
      7 C         139.7315  143.7349  165.7649 C.ar    1  UNL1       -0.0003
      8 C         139.7212  144.1378  164.3201 C.ar    1  UNL1       -0.0042
      9 C         140.7938  142.3914  167.7185 C.ar    1  UNL1        0.0175
     10 C         140.2342  143.3156  168.7589 C.ar    1  UNL1        0.0064
     11 C         140.2445  142.9125  170.2038 C.ar    1  UNL1        0.0608
     12 C         140.8145  141.5853  170.6081 C.ar    1  UNL1        0.2610
     13 O         140.8249  141.1822  172.0529 O.2     1  UNL1       -0.2670
     14 N         141.3742  140.6611  169.5676 N.ar    1  UNL1       -0.2922
     15 C         141.9442  139.3338  169.9719 C.3     1  UNL1        0.1336
     16 C         141.3639  141.0641  168.1228 C.ar    1  UNL1        0.0783
     17 C         139.9744  143.1978  160.9414 C.3     1  UNL1        0.1325
     18 N         140.2931  143.3042  159.4795 N.3     1  UNL1       -0.3148
     19 H         141.0593  143.9641  159.3457 H       1  UNL1        0.1192
     20 H         139.4696  143.6325  158.9750 H       1  UNL1        0.1192
     21 C         138.8777  142.2859  161.4055 C.2     1  UNL1        0.2401
     22 O         137.4831  142.8133  161.5702 O.2     1  UNL1       -0.2734
     23 N         139.1754  140.8466  161.7050 N.am    1  UNL1       -0.2756
     24 C         140.5140  140.1801  161.5873 C.3     1  UNL1        0.0964
     25 C         140.3527  138.7426  161.9843 C.3     1  UNL1        0.0585
     26 C         138.9144  138.5206  162.3473 C.3     1  UNL1        0.1824
     27 F         138.3098  137.2257  162.8029 F       1  UNL1       -0.2354
     28 C         138.1868  139.8209  162.1747 C.3     1  UNL1        0.1286
@<TRIPOS>BOND
     1     2     1    1
     2     2     3    1
     3     3     4   ar
     4     4     5   ar
     5     5     6   ar
     6     6     9    1
     7     9    10   ar
     8    10    11   ar
     9    11    12   ar
    10    12    13    2
    11    12    14   ar
    12    14    15    1
    13    14    16   ar
    14     6     7   ar
    15     7     8   ar
    16     2    17    1
    17    17    18    1
    18    17    21    1
    19    21    22    2
    20    21    23   am
    21    23    24    1
    22    24    25    1
    23    25    26    1
    24    26    27    1
    25    26    28    1
    26     8     3   ar
    27    28    23    1
    28    16     9   ar
    29    18    19    1
    30    18    20    1
@<TRIPOS>MOLECULE
*****
 28 30 0 0 0
SMALL
GASTEIGER

@<TRIPOS>ATOM
      1 C         137.7476  138.4745  161.7172 C.3     1  UNL1        0.0066
      2 C         139.0309  139.1468  162.1059 C.3     1  UNL1        0.0454
      3 C         139.2672  139.5440  163.5330 C.ar    1  UNL1       -0.0207
      4 C         138.8621  140.9075  164.0089 C.ar    1  UNL1       -0.0042
      5 C         139.0984  141.3047  165.4359 C.ar    1  UNL1       -0.0003
      6 C         139.7400  140.3383  166.3869 C.ar    1  UNL1        0.0014
      7 C         140.1452  138.9748  165.9110 C.ar    1  UNL1       -0.0003
      8 C         139.9088  138.5776  164.4840 C.ar    1  UNL1       -0.0042
      9 C         139.9764  140.7355  167.8140 C.ar    1  UNL1        0.0175
     10 C         139.2036  140.0719  168.9151 C.ar    1  UNL1        0.0064
     11 C         139.4399  140.4692  170.3421 C.ar    1  UNL1        0.0608
     12 C         140.4491  141.5300  170.6680 C.ar    1  UNL1        0.2610
     13 O         140.6855  141.9272  172.0950 O.2     1  UNL1       -0.2670
     14 N         141.2219  142.1936  169.5669 N.ar    1  UNL1       -0.2922
     15 C         142.2311  143.2544  169.8928 C.3     1  UNL1        0.1336
     16 C         140.9855  141.7964  168.1399 C.ar    1  UNL1        0.0783
     17 C         140.0779  139.4219  161.0676 C.3     1  UNL1        0.1325
     18 N         140.1451  138.5790  159.8285 N.3     1  UNL1       -0.3148
     19 H         139.4101  137.8724  159.8578 H       1  UNL1        0.1192
     20 H         141.0551  138.1212  159.7777 H       1  UNL1        0.1192
     21 C         141.0576  140.5398  161.2682 C.2     1  UNL1        0.2401
     22 O         140.7191  141.9260  160.8056 O.2     1  UNL1       -0.2734
     23 N         142.3760  140.2716  161.9315 N.am    1  UNL1       -0.2756
     24 C         142.8515  138.9444  162.4438 C.3     1  UNL1        0.0964
     25 C         144.2197  139.1361  163.0279 C.3     1  UNL1        0.0585
     26 C         144.5899  140.5818  162.8766 C.3     1  UNL1        0.1824
     27 F         145.8741  141.2146  163.3243 F       1  UNL1       -0.2354
     28 C         143.4504  141.2835  162.1990 C.3     1  UNL1        0.1286
@<TRIPOS>BOND
     1     2     1    1
     2     2     3    1
     3     3     4   ar
     4     4     5   ar
     5     5     6   ar
     6     6     9    1
     7     9    10   ar
     8    10    11   ar
     9    11    12   ar
    10    12    13    2
    11    12    14   ar
    12    14    15    1
    13    14    16   ar
    14     6     7   ar
    15     7     8   ar
    16     2    17    1
    17    17    18    1
    18    17    21    1
    19    21    22    2
    20    21    23   am
    21    23    24    1
    22    24    25    1
    23    25    26    1
    24    26    27    1
    25    26    28    1
    26     8     3   ar
    27    28    23    1
    28    16     9   ar
    29    18    19    1
    30    18    20    1
@<TRIPOS>MOLECULE
*****
 28 30 0 0 0
SMALL
GASTEIGER

@<TRIPOS>ATOM
      1 C         137.4353  138.3254  167.1837 C.3     1  UNL1        0.0066
      2 C         138.5063  139.1465  166.5290 C.3     1  UNL1        0.0454
      3 C         138.6062  139.1933  165.0330 C.ar    1  UNL1       -0.0207
      4 C         139.2264  138.0495  164.2866 C.ar    1  UNL1       -0.0042
      5 C         139.3263  138.0964  162.7907 C.ar    1  UNL1       -0.0003
      6 C         138.8061  139.2870  162.0412 C.ar    1  UNL1        0.0014
      7 C         138.1859  140.4307  162.7876 C.ar    1  UNL1       -0.0003
      8 C         138.0860  140.3839  164.2835 C.ar    1  UNL1       -0.0042
      9 C         138.9060  139.3338  160.5452 C.ar    1  UNL1        0.0175
     10 C         139.7955  138.3662  159.8223 C.ar    1  UNL1        0.0064
     11 C         139.8955  138.4130  158.3263 C.ar    1  UNL1        0.0608
     12 C         139.1059  139.4274  157.5533 C.ar    1  UNL1        0.2610
     13 O         139.2058  139.4743  156.0574 O.2     1  UNL1       -0.2670
     14 N         138.2164  140.3950  158.2763 N.ar    1  UNL1       -0.2922
     15 C         137.4269  141.4094  157.5032 C.3     1  UNL1        0.1336
     16 C         138.1165  140.3482  159.7722 C.ar    1  UNL1        0.0783
     17 C         139.4774  139.9207  167.3701 C.3     1  UNL1        0.1325
     18 N         139.4843  139.7465  168.8600 N.3     1  UNL1       -0.3148
     19 H         138.7696  139.0693  169.1264 H       1  UNL1        0.1192
     20 H         139.2884  140.6417  169.3079 H       1  UNL1        0.1192
     21 C         140.4415  140.8693  166.7214 C.2     1  UNL1        0.2401
     22 O         140.1111  142.3297  166.6316 O.2     1  UNL1       -0.2734
     23 N         141.7359  140.3574  166.1625 N.am    1  UNL1       -0.2756
     24 C         142.2008  138.9314  166.1789 C.3     1  UNL1        0.0964
     25 C         143.5450  138.8743  165.5157 C.3     1  UNL1        0.0585
     26 C         143.9109  140.2651  165.0893 C.3     1  UNL1        0.1824
     27 F         145.1732  140.6685  164.3865 F       1  UNL1       -0.2354
     28 C         142.7928  141.1817  165.4891 C.3     1  UNL1        0.1286
@<TRIPOS>BOND
     1     2     1    1
     2     2     3    1
     3     3     4   ar
     4     4     5   ar
     5     5     6   ar
     6     6     9    1
     7     9    10   ar
     8    10    11   ar
     9    11    12   ar
    10    12    13    2
    11    12    14   ar
    12    14    15    1
    13    14    16   ar
    14     6     7   ar
    15     7     8   ar
    16     2    17    1
    17    17    18    1
    18    17    21    1
    19    21    22    2
    20    21    23   am
    21    23    24    1
    22    24    25    1
    23    25    26    1
    24    26    27    1
    25    26    28    1
    26     8     3   ar
    27    28    23    1
    28    16     9   ar
    29    18    19    1
    30    18    20    1
@<TRIPOS>MOLECULE
*****
 28 30 0 0 0
SMALL
GASTEIGER

@<TRIPOS>ATOM
      1 C         143.4871  137.6203  161.0128 C.3     1  UNL1        0.0066
      2 C         143.4324  138.9992  161.6005 C.3     1  UNL1        0.0454
      3 C         142.9440  139.1972  163.0049 C.ar    1  UNL1       -0.0207
      4 C         143.9181  139.1912  164.1456 C.ar    1  UNL1       -0.0042
      5 C         143.4297  139.3892  165.5499 C.ar    1  UNL1       -0.0003
      6 C         141.9672  139.5930  165.8136 C.ar    1  UNL1        0.0014
      7 C         140.9931  139.5989  164.6730 C.ar    1  UNL1       -0.0003
      8 C         141.4815  139.4010  163.2686 C.ar    1  UNL1       -0.0042
      9 C         141.4787  139.7909  167.2180 C.ar    1  UNL1        0.0175
     10 C         140.0169  139.9995  167.4813 C.ar    1  UNL1        0.0064
     11 C         139.5285  140.1974  168.8858 C.ar    1  UNL1        0.0608
     12 C         140.5020  140.1867  170.0269 C.ar    1  UNL1        0.2610
     13 O         140.0136  140.3846  171.4312 O.2     1  UNL1       -0.2670
     14 N         141.9639  139.9781  169.7635 N.ar    1  UNL1       -0.2922
     15 C         142.9375  139.9673  170.9046 C.3     1  UNL1        0.1336
     16 C         142.4523  139.7802  168.3592 C.ar    1  UNL1        0.0783
     17 C         143.8661  140.1803  160.7838 C.3     1  UNL1        0.1325
     18 N         144.0652  140.0365  159.3040 N.3     1  UNL1       -0.3148
     19 H         143.8630  139.0764  159.0255 H       1  UNL1        0.1192
     20 H         145.0312  140.2629  159.0674 H       1  UNL1        0.1192
     21 C         144.1007  141.5052  161.4469 C.2     1  UNL1        0.2401
     22 O         145.4659  141.8558  161.9601 O.2     1  UNL1       -0.2734
     23 N         142.9701  142.4795  161.5969 N.am    1  UNL1       -0.2756
     24 C         141.5583  142.2696  161.1356 C.3     1  UNL1        0.0964
     25 C         140.7684  143.4951  161.4880 C.3     1  UNL1        0.0585
     26 C         141.6920  144.4624  162.1671 C.3     1  UNL1        0.1824
     27 F         141.3202  145.8192  162.6876 F       1  UNL1       -0.2354
     28 C         143.0527  143.8347  162.2344 C.3     1  UNL1        0.1286
@<TRIPOS>BOND
     1     2     1    1
     2     2     3    1
     3     3     4   ar
     4     4     5   ar
     5     5     6   ar
     6     6     9    1
     7     9    10   ar
     8    10    11   ar
     9    11    12   ar
    10    12    13    2
    11    12    14   ar
    12    14    15    1
    13    14    16   ar
    14     6     7   ar
    15     7     8   ar
    16     2    17    1
    17    17    18    1
    18    17    21    1
    19    21    22    2
    20    21    23   am
    21    23    24    1
    22    24    25    1
    23    25    26    1
    24    26    27    1
    25    26    28    1
    26     8     3   ar
    27    28    23    1
    28    16     9   ar
    29    18    19    1
    30    18    20    1
