@<TRIPOS>MOLECULE
*****
 47 52 0 0 0
SMALL
GASTEIGER

@<TRIPOS>ATOM
      1 C         139.2288  142.3561  158.1611 C.ar    1  UNL1       -0.0173
      2 C         139.2860  142.8585  156.7488 C.ar    1  UNL1       -0.0009
      3 C         139.7436  144.2594  156.4692 C.ar    1  UNL1        0.0395
      4 C         140.1440  145.1578  157.6018 C.ar    1  UNL1        0.1683
      5 O         140.6016  146.5586  157.3222 O.3     1  UNL1       -0.5028
      6 C         140.0868  144.6553  159.0139 C.ar    1  UNL1        0.1784
      7 C         139.6292  143.2544  159.2936 C.ar    1  UNL1        0.0364
      8 H         140.6374  146.8725  156.4400 H       1  UNL1        0.2923
      9 C         138.7712  140.9552  158.4407 C.3     1  UNL1        0.0469
     10 C         138.4446  139.7621  163.7057 C.ar    1  UNL1        0.1718
     11 C         139.6141  138.9870  163.1752 C.ar    1  UNL1        0.0356
     12 C         139.9881  139.0915  161.7263 C.ar    1  UNL1       -0.0203
     13 C         139.1926  139.9711  160.8080 C.ar    1  UNL1       -0.0082
     14 C         138.0231  140.7462  161.3384 C.ar    1  UNL1        0.0365
     15 C         137.6491  140.6417  162.7873 C.ar    1  UNL1        0.1674
     16 O         136.4796  141.4169  163.3177 O.3     1  UNL1       -0.5029
     17 C         139.5667  140.0756  159.3591 C.3     1  UNL1        0.0843
     18 N         140.7361  139.3005  158.8286 N.3     1  UNL1       -0.2685
     19 C         141.1102  139.4050  157.3798 C.3     1  UNL1        0.0899
     20 C         141.5317  138.4208  159.7470 C.3     1  UNL1        0.0771
     21 C         141.1577  138.3163  161.1959 C.3     1  UNL1        0.0435
     22 H         135.9827  141.9664  162.7440 H       1  UNL1        0.2923
     23 C         138.4556  138.4409  165.9427 C.3     1  UNL1        0.2526
     24 O         138.0706  139.6577  165.1545 O.3     1  UNL1       -0.4684
     25 O         140.4872  145.5536  160.1464 O.3     1  UNL1       -0.4505
     26 C         141.3309  145.0191  161.2656 C.ar    1  UNL1        0.1454
     27 C         140.9969  145.3630  162.6869 C.ar    1  UNL1        0.0372
     28 C         141.8406  144.8285  163.8060 C.ar    1  UNL1       -0.0011
     29 C         143.0183  143.9500  163.5038 C.ar    1  UNL1       -0.0203
     30 C         143.3523  143.6060  162.0825 C.ar    1  UNL1       -0.0011
     31 C         142.5086  144.1405  160.9633 C.ar    1  UNL1        0.0372
     32 C         143.8619  143.4154  164.6229 C.3     1  UNL1        0.0468
     33 C         143.8384  141.9509  164.9465 C.3     1  UNL1        0.0843
     34 C         142.8846  141.4260  165.9783 C.ar    1  UNL1       -0.0081
     35 C         141.9543  142.3656  166.6867 C.ar    1  UNL1        0.0368
     36 C         141.0005  141.8407  167.7185 C.ar    1  UNL1        0.1721
     37 C         140.9770  140.3762  168.0420 C.ar    1  UNL1        0.1721
     38 C         141.9072  139.4367  167.3337 C.ar    1  UNL1        0.0356
     39 C         142.8610  139.9616  166.3018 C.ar    1  UNL1       -0.0203
     40 C         143.7913  139.0219  165.5935 C.3     1  UNL1        0.0435
     41 C         144.7451  139.5468  164.5616 C.3     1  UNL1        0.0771
     42 N         144.7686  141.0114  164.2381 N.3     1  UNL1       -0.2685
     43 C         145.7224  141.5363  163.2062 C.3     1  UNL1        0.0899
     44 O         140.0703  142.7804  168.4269 O.3     1  UNL1       -0.4684
     45 C         140.5397  143.5281  169.6396 C.3     1  UNL1        0.2526
     46 O         140.0232  139.8513  169.0739 O.3     1  UNL1       -0.4684
     47 C         140.3869  139.9058  170.5281 C.3     1  UNL1        0.2526
@<TRIPOS>BOND
     1    23    24    1
     2    24    10    1
     3    10    11   ar
     4    11    12   ar
     5    12    13   ar
     6    13    14   ar
     7    14    15   ar
     8    15    16    1
     9    13    17    1
    10    17     9    1
    11     9     1    1
    12     1     2   ar
    13     2     3   ar
    14     3     4   ar
    15     4     5    1
    16     4     6   ar
    17     6    25    1
    18    25    26    1
    19    26    27   ar
    20    27    28   ar
    21    28    29   ar
    22    29    32    1
    23    33    32    1
    24    33    34    1
    25    34    35   ar
    26    35    36   ar
    27    36    44    1
    28    44    45    1
    29    36    37   ar
    30    37    46    1
    31    46    47    1
    32    37    38   ar
    33    38    39   ar
    34    39    40    1
    35    40    41    1
    36    41    42    1
    37    42    43    1
    38    29    30   ar
    39    30    31   ar
    40     6     7   ar
    41    17    18    1
    42    18    19    1
    43    18    20    1
    44    20    21    1
    45    15    10   ar
    46     7     1   ar
    47    21    12    1
    48    31    26   ar
    49    42    33    1
    50    39    34   ar
    51    16    22    1
    52     5     8    1
@<TRIPOS>MOLECULE
*****
 47 52 0 0 0
SMALL
GASTEIGER

@<TRIPOS>ATOM
      1 C         140.8961  143.0797  158.5686 C.ar    1  UNL1       -0.0173
      2 C         141.3668  143.5473  157.2232 C.ar    1  UNL1       -0.0009
      3 C         142.8265  143.4999  156.8813 C.ar    1  UNL1        0.0395
      4 C         143.8155  142.9849  157.8846 C.ar    1  UNL1        0.1683
      5 O         145.2752  142.9375  157.5427 O.3     1  UNL1       -0.5028
      6 C         143.3448  142.5173  159.2299 C.ar    1  UNL1        0.1784
      7 C         141.8851  142.5647  159.5718 C.ar    1  UNL1        0.0364
      8 H         145.5693  143.2296  156.7023 H       1  UNL1        0.2923
      9 C         139.4363  143.1271  158.9105 C.3     1  UNL1        0.0469
     10 C         139.1135  143.2305  164.3082 C.ar    1  UNL1        0.1718
     11 C         138.4735  141.9440  163.8777 C.ar    1  UNL1        0.0356
     12 C         138.3942  141.5965  162.4207 C.ar    1  UNL1       -0.0203
     13 C         138.9549  142.5355  161.3941 C.ar    1  UNL1       -0.0082
     14 C         139.5949  143.8220  161.8246 C.ar    1  UNL1        0.0365
     15 C         139.6742  144.1695  163.2817 C.ar    1  UNL1        0.1674
     16 O         140.3142  145.4560  163.7121 O.3     1  UNL1       -0.5029
     17 C         138.8756  142.1881  159.9371 C.3     1  UNL1        0.0843
     18 N         138.2357  140.9016  159.5066 N.3     1  UNL1       -0.2685
     19 C         138.1564  140.5541  158.0496 C.3     1  UNL1        0.0899
     20 C         137.6749  139.9625  160.5332 C.3     1  UNL1        0.0771
     21 C         137.7542  140.3100  161.9902 C.3     1  UNL1        0.0435
     22 H         140.6645  146.0426  163.0709 H       1  UNL1        0.2923
     23 C         140.3501  143.0966  166.5892 C.3     1  UNL1        0.2526
     24 O         139.1928  143.5779  165.7653 O.3     1  UNL1       -0.4684
     25 O         144.3338  142.0023  160.2331 O.3     1  UNL1       -0.4505
     26 C         143.8687  141.1454  161.3731 C.ar    1  UNL1        0.1454
     27 C         144.1303  139.6685  161.3565 C.ar    1  UNL1        0.0372
     28 C         143.6653  138.8116  162.4964 C.ar    1  UNL1       -0.0011
     29 C         142.9386  139.4315  163.6529 C.ar    1  UNL1       -0.0203
     30 C         142.6770  140.9085  163.6695 C.ar    1  UNL1       -0.0011
     31 C         143.1421  141.7654  162.5296 C.ar    1  UNL1        0.0372
     32 C         142.4735  138.5746  164.7928 C.3     1  UNL1        0.0468
     33 C         141.0805  138.7287  165.3272 C.3     1  UNL1        0.0843
     34 C         140.8582  139.3530  166.6729 C.ar    1  UNL1       -0.0081
     35 C         142.0290  139.8232  167.4842 C.ar    1  UNL1        0.0368
     36 C         141.8067  140.4474  168.8299 C.ar    1  UNL1        0.1721
     37 C         140.4137  140.6015  169.3643 C.ar    1  UNL1        0.1721
     38 C         139.2429  140.1314  168.5530 C.ar    1  UNL1        0.0356
     39 C         139.4652  139.5071  167.2073 C.ar    1  UNL1       -0.0203
     40 C         138.2943  139.0369  166.3961 C.3     1  UNL1        0.0435
     41 C         138.5166  138.4126  165.0504 C.3     1  UNL1        0.0771
     42 N         139.9098  138.2585  164.5160 N.3     1  UNL1       -0.2685
     43 C         140.1320  137.6343  163.1703 C.3     1  UNL1        0.0899
     44 O         142.9776  140.9176  169.6411 O.3     1  UNL1       -0.4684
     45 C         143.4731  142.3260  169.4964 C.3     1  UNL1        0.2526
     46 O         140.1914  141.2258  170.7100 O.3     1  UNL1       -0.4684
     47 C         139.9205  142.6971  170.8187 C.3     1  UNL1        0.2526
@<TRIPOS>BOND
     1    23    24    1
     2    24    10    1
     3    10    11   ar
     4    11    12   ar
     5    12    13   ar
     6    13    14   ar
     7    14    15   ar
     8    15    16    1
     9    13    17    1
    10    17     9    1
    11     9     1    1
    12     1     2   ar
    13     2     3   ar
    14     3     4   ar
    15     4     5    1
    16     4     6   ar
    17     6    25    1
    18    25    26    1
    19    26    27   ar
    20    27    28   ar
    21    28    29   ar
    22    29    32    1
    23    33    32    1
    24    33    34    1
    25    34    35   ar
    26    35    36   ar
    27    36    44    1
    28    44    45    1
    29    36    37   ar
    30    37    46    1
    31    46    47    1
    32    37    38   ar
    33    38    39   ar
    34    39    40    1
    35    40    41    1
    36    41    42    1
    37    42    43    1
    38    29    30   ar
    39    30    31   ar
    40     6     7   ar
    41    17    18    1
    42    18    19    1
    43    18    20    1
    44    20    21    1
    45    15    10   ar
    46     7     1   ar
    47    21    12    1
    48    31    26   ar
    49    42    33    1
    50    39    34   ar
    51    16    22    1
    52     5     8    1
@<TRIPOS>MOLECULE
*****
 47 52 0 0 0
SMALL
GASTEIGER

@<TRIPOS>ATOM
      1 C         139.9041  139.2906  157.8325 C.ar    1  UNL1       -0.0173
      2 C         139.6980  138.0768  156.9755 C.ar    1  UNL1       -0.0009
      3 C         140.8538  137.1724  156.6656 C.ar    1  UNL1        0.0395
      4 C         142.2159  137.4817  157.2128 C.ar    1  UNL1        0.1683
      5 O         143.3717  136.5773  156.9029 O.3     1  UNL1       -0.5028
      6 C         142.4220  138.6954  158.0698 C.ar    1  UNL1        0.1784
      7 C         141.2661  139.5998  158.3796 C.ar    1  UNL1        0.0364
      8 H         143.2430  135.8192  156.3676 H       1  UNL1        0.2923
      9 C         138.7483  140.1950  158.1424 C.3     1  UNL1        0.0469
     10 C         138.3416  139.5584  163.4977 C.ar    1  UNL1        0.1718
     11 C         138.5761  141.0223  163.2693 C.ar    1  UNL1        0.0356
     12 C         138.7364  141.5474  161.8734 C.ar    1  UNL1       -0.0203
     13 C         138.6622  140.6086  160.7058 C.ar    1  UNL1       -0.0082
     14 C         138.4277  139.1448  160.9342 C.ar    1  UNL1        0.0365
     15 C         138.2674  138.6197  162.3301 C.ar    1  UNL1        0.1674
     16 O         138.0329  137.1558  162.5584 O.3     1  UNL1       -0.5029
     17 C         138.8225  141.1337  159.3099 C.3     1  UNL1        0.0843
     18 N         139.0570  142.5975  159.0816 N.3     1  UNL1       -0.2685
     19 C         139.2173  143.1226  157.6856 C.3     1  UNL1        0.0899
     20 C         139.1312  143.5364  160.2492 C.3     1  UNL1        0.0771
     21 C         138.9709  143.0113  161.6451 C.3     1  UNL1        0.0435
     22 H         137.9865  136.5694  161.8291 H       1  UNL1        0.2923
     23 C         138.9787  137.8454  165.3442 C.3     1  UNL1        0.2526
     24 O         138.1813  139.0333  164.8936 O.3     1  UNL1       -0.4684
     25 O         143.7839  139.0047  158.6169 O.3     1  UNL1       -0.4505
     26 C         143.9433  139.3923  160.0571 C.ar    1  UNL1        0.1454
     27 C         144.2328  140.8179  160.4226 C.ar    1  UNL1        0.0372
     28 C         144.3923  141.2055  161.8628 C.ar    1  UNL1       -0.0011
     29 C         144.2622  140.1674  162.9377 C.ar    1  UNL1       -0.0203
     30 C         143.9727  138.7416  162.5723 C.ar    1  UNL1       -0.0011
     31 C         143.8133  138.3540  161.1320 C.ar    1  UNL1        0.0372
     32 C         144.4217  140.5549  164.3779 C.3     1  UNL1        0.0468
     33 C         143.2478  140.4814  165.3088 C.3     1  UNL1        0.0843
     34 C         142.2084  141.5629  165.2920 C.ar    1  UNL1       -0.0081
     35 C         142.3430  142.7178  164.3444 C.ar    1  UNL1        0.0368
     36 C         141.3036  143.7992  164.3277 C.ar    1  UNL1        0.1721
     37 C         140.1297  143.7257  165.2585 C.ar    1  UNL1        0.1721
     38 C         139.9952  142.5708  166.2061 C.ar    1  UNL1        0.0356
     39 C         141.0345  141.4893  166.2229 C.ar    1  UNL1       -0.0203
     40 C         140.8999  140.3344  167.1705 C.3     1  UNL1        0.0435
     41 C         141.9393  139.2529  167.1873 C.3     1  UNL1        0.0771
     42 N         143.1132  139.3265  166.2564 N.3     1  UNL1       -0.2685
     43 C         144.1526  138.2451  166.2731 C.3     1  UNL1        0.0899
     44 O         141.4382  144.9542  163.3800 O.3     1  UNL1       -0.4684
     45 C         142.2414  144.8027  162.1223 C.3     1  UNL1        0.2526
     46 O         139.0904  144.8071  165.2418 O.3     1  UNL1       -0.4684
     47 C         137.6911  144.4958  164.8002 C.3     1  UNL1        0.2526
@<TRIPOS>BOND
     1    23    24    1
     2    24    10    1
     3    10    11   ar
     4    11    12   ar
     5    12    13   ar
     6    13    14   ar
     7    14    15   ar
     8    15    16    1
     9    13    17    1
    10    17     9    1
    11     9     1    1
    12     1     2   ar
    13     2     3   ar
    14     3     4   ar
    15     4     5    1
    16     4     6   ar
    17     6    25    1
    18    25    26    1
    19    26    27   ar
    20    27    28   ar
    21    28    29   ar
    22    29    32    1
    23    33    32    1
    24    33    34    1
    25    34    35   ar
    26    35    36   ar
    27    36    44    1
    28    44    45    1
    29    36    37   ar
    30    37    46    1
    31    46    47    1
    32    37    38   ar
    33    38    39   ar
    34    39    40    1
    35    40    41    1
    36    41    42    1
    37    42    43    1
    38    29    30   ar
    39    30    31   ar
    40     6     7   ar
    41    17    18    1
    42    18    19    1
    43    18    20    1
    44    20    21    1
    45    15    10   ar
    46     7     1   ar
    47    21    12    1
    48    31    26   ar
    49    42    33    1
    50    39    34   ar
    51    16    22    1
    52     5     8    1
@<TRIPOS>MOLECULE
*****
 47 52 0 0 0
SMALL
GASTEIGER

@<TRIPOS>ATOM
      1 C         143.3869  141.9913  157.6655 C.ar    1  UNL1       -0.0173
      2 C         144.2393  141.7104  156.4636 C.ar    1  UNL1       -0.0009
      3 C         144.3759  140.3068  155.9524 C.ar    1  UNL1        0.0395
      4 C         143.6601  139.1841  156.6433 C.ar    1  UNL1        0.1683
      5 O         143.7967  137.7805  156.1322 O.3     1  UNL1       -0.5028
      6 C         142.8077  139.4650  157.8452 C.ar    1  UNL1        0.1784
      7 C         142.6711  140.8686  158.3563 C.ar    1  UNL1        0.0364
      8 H         144.3291  137.6050  155.3814 H       1  UNL1        0.2923
      9 C         143.2503  143.3949  158.1766 C.3     1  UNL1        0.0469
     10 C         143.7861  142.8456  163.5302 C.ar    1  UNL1        0.1718
     11 C         142.4161  143.4135  163.3053 C.ar    1  UNL1        0.0356
     12 C         141.9397  143.6928  161.9107 C.ar    1  UNL1       -0.0203
     13 C         142.8332  143.4042  160.7410 C.ar    1  UNL1       -0.0082
     14 C         144.2032  142.8363  160.9659 C.ar    1  UNL1        0.0365
     15 C         144.6796  142.5570  162.3605 C.ar    1  UNL1        0.1674
     16 O         146.0497  141.9891  162.5854 O.3     1  UNL1       -0.5029
     17 C         142.3568  143.6835  159.3463 C.3     1  UNL1        0.0843
     18 N         140.9868  144.2514  159.1214 N.3     1  UNL1       -0.2685
     19 C         140.5104  144.5307  157.7268 C.3     1  UNL1        0.0899
     20 C         140.0932  144.5401  160.2912 C.3     1  UNL1        0.0771
     21 C         140.5696  144.2608  161.6858 C.3     1  UNL1        0.0435
     22 H         146.6078  141.8088  161.8547 H       1  UNL1        0.2923
     23 C         144.8211  143.6776  165.7633 C.3     1  UNL1        0.2526
     24 O         144.2625  142.5663  164.9249 O.3     1  UNL1       -0.4684
     25 O         142.0920  138.3423  158.5359 O.3     1  UNL1       -0.4505
     26 C         141.3821  138.5913  159.8336 C.ar    1  UNL1        0.1454
     27 C         139.8844  138.5341  159.8922 C.ar    1  UNL1        0.0372
     28 C         139.1744  138.7830  161.1899 C.ar    1  UNL1       -0.0011
     29 C         139.9623  139.0892  162.4290 C.ar    1  UNL1       -0.0203
     30 C         141.4601  139.1465  162.3705 C.ar    1  UNL1       -0.0011
     31 C         142.1700  138.8975  161.0728 C.ar    1  UNL1        0.0372
     32 C         139.2524  139.3382  163.7268 C.3     1  UNL1        0.0468
     33 C         139.3404  140.6838  164.3837 C.3     1  UNL1        0.0843
     34 C         140.3423  140.9218  165.4744 C.ar    1  UNL1       -0.0081
     35 C         141.2561  139.8142  165.9081 C.ar    1  UNL1        0.0368
     36 C         142.2580  140.0523  166.9988 C.ar    1  UNL1        0.1721
     37 C         142.3461  141.3979  167.6557 C.ar    1  UNL1        0.1721
     38 C         141.4322  142.5054  167.2220 C.ar    1  UNL1        0.0356
     39 C         140.4304  142.2674  166.1313 C.ar    1  UNL1       -0.0203
     40 C         139.5165  143.3750  165.6975 C.3     1  UNL1        0.0435
     41 C         138.5146  143.1370  164.6069 C.3     1  UNL1        0.0771
     42 N         138.4266  141.7913  163.9499 N.3     1  UNL1       -0.2685
     43 C         137.4247  141.5533  162.8593 C.3     1  UNL1        0.0899
     44 O         143.1719  138.9446  167.4325 O.3     1  UNL1       -0.4684
     45 C         143.8503  138.0867  166.4060 C.3     1  UNL1        0.2526
     46 O         143.3479  141.6359  168.7464 O.3     1  UNL1       -0.4684
     47 C         143.0427  141.2087  170.1515 C.3     1  UNL1        0.2526
@<TRIPOS>BOND
     1    23    24    1
     2    24    10    1
     3    10    11   ar
     4    11    12   ar
     5    12    13   ar
     6    13    14   ar
     7    14    15   ar
     8    15    16    1
     9    13    17    1
    10    17     9    1
    11     9     1    1
    12     1     2   ar
    13     2     3   ar
    14     3     4   ar
    15     4     5    1
    16     4     6   ar
    17     6    25    1
    18    25    26    1
    19    26    27   ar
    20    27    28   ar
    21    28    29   ar
    22    29    32    1
    23    33    32    1
    24    33    34    1
    25    34    35   ar
    26    35    36   ar
    27    36    44    1
    28    44    45    1
    29    36    37   ar
    30    37    46    1
    31    46    47    1
    32    37    38   ar
    33    38    39   ar
    34    39    40    1
    35    40    41    1
    36    41    42    1
    37    42    43    1
    38    29    30   ar
    39    30    31   ar
    40     6     7   ar
    41    17    18    1
    42    18    19    1
    43    18    20    1
    44    20    21    1
    45    15    10   ar
    46     7     1   ar
    47    21    12    1
    48    31    26   ar
    49    42    33    1
    50    39    34   ar
    51    16    22    1
    52     5     8    1
@<TRIPOS>MOLECULE
*****
 47 52 0 0 0
SMALL
GASTEIGER

@<TRIPOS>ATOM
      1 C         139.3792  143.1096  157.4532 C.ar    1  UNL1       -0.0173
      2 C         138.5067  143.3399  156.2549 C.ar    1  UNL1       -0.0009
      3 C         137.3643  142.4108  155.9692 C.ar    1  UNL1        0.0395
      4 C         137.0944  141.2514  156.8819 C.ar    1  UNL1        0.1683
      5 O         135.9519  140.3222  156.5963 O.3     1  UNL1       -0.5028
      6 C         137.9668  141.0211  158.0801 C.ar    1  UNL1        0.1784
      7 C         139.1092  141.9502  158.3657 C.ar    1  UNL1        0.0364
      8 H         135.4069  140.4661  155.8478 H       1  UNL1        0.2923
      9 C         140.5217  144.0387  157.7388 C.3     1  UNL1        0.0469
     10 C         140.6275  144.3473  163.1373 C.ar    1  UNL1        0.1718
     11 C         141.9477  143.7648  162.7279 C.ar    1  UNL1        0.0356
     12 C         142.2513  143.5421  161.2759 C.ar    1  UNL1       -0.0203
     13 C         141.2347  143.9018  160.2333 C.ar    1  UNL1       -0.0082
     14 C         139.9144  144.4843  160.6427 C.ar    1  UNL1        0.0365
     15 C         139.6108  144.7070  162.0947 C.ar    1  UNL1        0.1674
     16 O         138.2905  145.2896  162.5040 O.3     1  UNL1       -0.5029
     17 C         141.5383  143.6790  158.7814 C.3     1  UNL1        0.0843
     18 N         142.8585  143.0965  158.3720 N.3     1  UNL1       -0.2685
     19 C         143.1621  142.8737  156.9200 C.3     1  UNL1        0.0899
     20 C         143.8752  142.7368  159.4146 C.3     1  UNL1        0.0771
     21 C         143.5716  142.9595  160.8666 C.3     1  UNL1        0.0435
     22 H         137.6555  145.5143  161.8527 H       1  UNL1        0.2923
     23 C         139.5577  143.5379  165.3622 C.3     1  UNL1        0.2526
     24 O         140.3239  144.5701  164.5892 O.3     1  UNL1       -0.4684
     25 O         137.6968  139.8617  158.9927 O.3     1  UNL1       -0.4505
     26 C         138.6635  139.5306  160.0908 C.ar    1  UNL1        0.1454
     27 C         138.4150  140.0279  161.4840 C.ar    1  UNL1        0.0372
     28 C         139.3817  139.6969  162.5821 C.ar    1  UNL1       -0.0011
     29 C         140.5969  138.8685  162.2871 C.ar    1  UNL1       -0.0203
     30 C         140.8454  138.3711  160.8939 C.ar    1  UNL1       -0.0011
     31 C         139.8787  138.7022  159.7958 C.ar    1  UNL1        0.0372
     32 C         141.5635  138.5374  163.3853 C.3     1  UNL1        0.0468
     33 C         142.2601  139.6384  164.1285 C.3     1  UNL1        0.0843
     34 C         141.7128  140.1220  165.4387 C.ar    1  UNL1       -0.0081
     35 C         140.4689  139.5046  166.0056 C.ar    1  UNL1        0.0368
     36 C         139.9216  139.9882  167.3158 C.ar    1  UNL1        0.1721
     37 C         140.6181  141.0892  168.0591 C.ar    1  UNL1        0.1721
     38 C         141.8620  141.7067  167.4921 C.ar    1  UNL1        0.0356
     39 C         142.4093  141.2231  166.1819 C.ar    1  UNL1       -0.0203
     40 C         143.6533  141.8406  165.6150 C.3     1  UNL1        0.0435
     41 C         144.2006  141.3570  164.3048 C.3     1  UNL1        0.0771
     42 N         143.5040  140.2559  163.5616 N.3     1  UNL1       -0.2685
     43 C         144.0513  139.7723  162.2514 C.3     1  UNL1        0.0899
     44 O         138.6776  139.3706  167.8828 O.3     1  UNL1       -0.4684
     45 C         137.7404  138.6151  166.9878 C.3     1  UNL1        0.2526
     46 O         140.0708  141.5728  169.3692 O.3     1  UNL1       -0.4684
     47 C         140.2438  143.0077  169.7705 C.3     1  UNL1        0.2526
@<TRIPOS>BOND
     1    23    24    1
     2    24    10    1
     3    10    11   ar
     4    11    12   ar
     5    12    13   ar
     6    13    14   ar
     7    14    15   ar
     8    15    16    1
     9    13    17    1
    10    17     9    1
    11     9     1    1
    12     1     2   ar
    13     2     3   ar
    14     3     4   ar
    15     4     5    1
    16     4     6   ar
    17     6    25    1
    18    25    26    1
    19    26    27   ar
    20    27    28   ar
    21    28    29   ar
    22    29    32    1
    23    33    32    1
    24    33    34    1
    25    34    35   ar
    26    35    36   ar
    27    36    44    1
    28    44    45    1
    29    36    37   ar
    30    37    46    1
    31    46    47    1
    32    37    38   ar
    33    38    39   ar
    34    39    40    1
    35    40    41    1
    36    41    42    1
    37    42    43    1
    38    29    30   ar
    39    30    31   ar
    40     6     7   ar
    41    17    18    1
    42    18    19    1
    43    18    20    1
    44    20    21    1
    45    15    10   ar
    46     7     1   ar
    47    21    12    1
    48    31    26   ar
    49    42    33    1
    50    39    34   ar
    51    16    22    1
    52     5     8    1
@<TRIPOS>MOLECULE
*****
 47 52 0 0 0
SMALL
GASTEIGER

@<TRIPOS>ATOM
      1 C         141.3424  140.3826  166.1628 C.ar    1  UNL1       -0.0173
      2 C         140.6220  140.5909  167.4619 C.ar    1  UNL1       -0.0009
      3 C         139.2720  139.9737  167.6782 C.ar    1  UNL1        0.0395
      4 C         138.6425  139.1483  166.5953 C.ar    1  UNL1        0.1683
      5 O         137.2926  138.5312  166.8116 O.3     1  UNL1       -0.5028
      6 C         139.3629  138.9401  165.2963 C.ar    1  UNL1        0.1784
      7 C         140.7129  139.5573  165.0800 C.ar    1  UNL1        0.0364
      8 H         136.8425  138.6613  167.6231 H       1  UNL1        0.2923
      9 C         142.6924  140.9998  165.9465 C.3     1  UNL1        0.0469
     10 C         140.8713  145.0406  162.8473 C.ar    1  UNL1        0.1718
     11 C         141.9812  144.3915  162.0748 C.ar    1  UNL1        0.0356
     12 C         142.7139  143.2190  162.6565 C.ar    1  UNL1       -0.0203
     13 C         142.3368  142.6956  164.0107 C.ar    1  UNL1       -0.0082
     14 C         141.2269  143.3447  164.7831 C.ar    1  UNL1        0.0365
     15 C         140.4941  144.5172  164.2015 C.ar    1  UNL1        0.1674
     16 O         139.3842  145.1663  164.9740 O.3     1  UNL1       -0.5029
     17 C         143.0695  141.5231  164.5924 C.3     1  UNL1        0.0843
     18 N         144.1794  140.8740  163.8199 N.3     1  UNL1       -0.2685
     19 C         144.9121  139.7015  164.4016 C.3     1  UNL1        0.0899
     20 C         144.5566  141.3974  162.4657 C.3     1  UNL1        0.0771
     21 C         143.8239  142.5699  161.8840 C.3     1  UNL1        0.0435
     22 H         139.1486  144.8394  165.8199 H       1  UNL1        0.2923
     23 C         139.7361  146.2042  160.8207 C.3     1  UNL1        0.2526
     24 O         140.1386  146.2131  162.2656 O.3     1  UNL1       -0.4684
     25 O         138.7334  138.1148  164.2135 O.3     1  UNL1       -0.4505
     26 C         138.8086  138.5677  162.7855 C.ar    1  UNL1        0.1454
     27 C         139.7577  137.8993  161.8356 C.ar    1  UNL1        0.0372
     28 C         139.8328  138.3522  160.4076 C.ar    1  UNL1       -0.0011
     29 C         138.9589  139.4737  159.9296 C.ar    1  UNL1       -0.0203
     30 C         138.0098  140.1422  160.8795 C.ar    1  UNL1       -0.0011
     31 C         137.9347  139.6893  162.3075 C.ar    1  UNL1        0.0372
     32 C         139.0341  139.9267  158.5016 C.3     1  UNL1        0.0468
     33 C         139.5738  141.2872  158.1737 C.3     1  UNL1        0.0843
     34 C         141.0444  141.5588  158.2900 C.ar    1  UNL1       -0.0081
     35 C         141.9754  140.4698  158.7340 C.ar    1  UNL1        0.0368
     36 C         143.4460  140.7413  158.8503 C.ar    1  UNL1        0.1721
     37 C         143.9857  142.1019  158.5224 C.ar    1  UNL1        0.1721
     38 C         143.0547  143.1909  158.0784 C.ar    1  UNL1        0.0356
     39 C         141.5841  142.9194  157.9622 C.ar    1  UNL1       -0.0203
     40 C         140.6531  144.0085  157.5181 C.3     1  UNL1        0.0435
     41 C         139.1825  143.7370  157.4018 C.3     1  UNL1        0.0771
     42 N         138.6428  142.3763  157.7297 N.3     1  UNL1       -0.2685
     43 C         137.1722  142.1047  157.6135 C.3     1  UNL1        0.0899
     44 O         144.3770  139.6522  159.2943 O.3     1  UNL1       -0.4684
     45 C         143.9268  138.6514  160.3170 C.3     1  UNL1        0.2526
     46 O         145.4563  142.3734  158.6387 O.3     1  UNL1       -0.4684
     47 C         146.2948  142.5048  157.4019 C.3     1  UNL1        0.2526
@<TRIPOS>BOND
     1    23    24    1
     2    24    10    1
     3    10    11   ar
     4    11    12   ar
     5    12    13   ar
     6    13    14   ar
     7    14    15   ar
     8    15    16    1
     9    13    17    1
    10    17     9    1
    11     9     1    1
    12     1     2   ar
    13     2     3   ar
    14     3     4   ar
    15     4     5    1
    16     4     6   ar
    17     6    25    1
    18    25    26    1
    19    26    27   ar
    20    27    28   ar
    21    28    29   ar
    22    29    32    1
    23    33    32    1
    24    33    34    1
    25    34    35   ar
    26    35    36   ar
    27    36    44    1
    28    44    45    1
    29    36    37   ar
    30    37    46    1
    31    46    47    1
    32    37    38   ar
    33    38    39   ar
    34    39    40    1
    35    40    41    1
    36    41    42    1
    37    42    43    1
    38    29    30   ar
    39    30    31   ar
    40     6     7   ar
    41    17    18    1
    42    18    19    1
    43    18    20    1
    44    20    21    1
    45    15    10   ar
    46     7     1   ar
    47    21    12    1
    48    31    26   ar
    49    42    33    1
    50    39    34   ar
    51    16    22    1
    52     5     8    1
@<TRIPOS>MOLECULE
*****
 47 52 0 0 0
SMALL
GASTEIGER

@<TRIPOS>ATOM
      1 C         140.2357  139.2356  157.9257 C.ar    1  UNL1       -0.0173
      2 C         140.3204  138.4581  156.6457 C.ar    1  UNL1       -0.0009
      3 C         141.6595  138.0864  156.0812 C.ar    1  UNL1        0.0395
      4 C         142.9139  138.4923  156.7967 C.ar    1  UNL1        0.1683
      5 O         144.2530  138.1206  156.2322 O.3     1  UNL1       -0.5028
      6 C         142.8291  139.2697  158.0766 C.ar    1  UNL1        0.1784
      7 C         141.4901  139.6414  158.6411 C.ar    1  UNL1        0.0364
      8 H         144.3059  137.6349  155.4326 H       1  UNL1        0.2923
      9 C         138.8966  139.6073  158.4902 C.3     1  UNL1        0.0469
     10 C         139.2645  139.2714  163.8756 C.ar    1  UNL1        0.1718
     11 C         139.0179  140.7180  163.5648 C.ar    1  UNL1        0.0356
     12 C         138.8643  141.1636  162.1408 C.ar    1  UNL1       -0.0203
     13 C         138.9572  140.1627  161.0275 C.ar    1  UNL1       -0.0082
     14 C         139.2038  138.7161  161.3383 C.ar    1  UNL1        0.0365
     15 C         139.3575  138.2705  162.7623 C.ar    1  UNL1        0.1674
     16 O         139.6041  136.8238  163.0730 O.3     1  UNL1       -0.5029
     17 C         138.8036  140.6083  159.6035 C.3     1  UNL1        0.0843
     18 N         138.5570  142.0548  159.2927 N.3     1  UNL1       -0.2685
     19 C         138.4034  142.5004  157.8687 C.3     1  UNL1        0.0899
     20 C         138.4640  143.0559  160.4060 C.3     1  UNL1        0.0771
     21 C         138.6177  142.6103  161.8301 C.3     1  UNL1        0.0435
     22 H         139.6621  136.1986  162.3776 H       1  UNL1        0.2923
     23 C         138.2044  138.6263  166.1581 C.3     1  UNL1        0.2526
     24 O         139.4181  138.8258  165.2996 O.3     1  UNL1       -0.4684
     25 O         144.0835  139.6755  158.7921 O.3     1  UNL1       -0.4505
     26 C         143.9991  140.4656  160.0643 C.ar    1  UNL1        0.1454
     27 C         144.1645  141.9561  160.0339 C.ar    1  UNL1        0.0372
     28 C         144.0801  142.7462  161.3062 C.ar    1  UNL1       -0.0011
     29 C         143.8304  142.0457  162.6089 C.ar    1  UNL1       -0.0203
     30 C         143.6651  140.5551  162.6393 C.ar    1  UNL1       -0.0011
     31 C         143.7494  139.7650  161.3670 C.ar    1  UNL1        0.0372
     32 C         143.7461  142.8358  163.8812 C.3     1  UNL1        0.0468
     33 C         142.4131  143.0848  164.5224 C.3     1  UNL1        0.0843
     34 C         141.9430  142.2038  165.6418 C.ar    1  UNL1       -0.0081
     35 C         142.8059  141.0739  166.1199 C.ar    1  UNL1        0.0368
     36 C         142.3358  140.1930  167.2393 C.ar    1  UNL1        0.1721
     37 C         141.0029  140.4420  167.8805 C.ar    1  UNL1        0.1721
     38 C         140.1400  141.5719  167.4024 C.ar    1  UNL1        0.0356
     39 C         140.6101  142.4528  166.2830 C.ar    1  UNL1       -0.0203
     40 C         139.7472  143.5828  165.8049 C.3     1  UNL1        0.0435
     41 C         140.2172  144.4638  164.6855 C.3     1  UNL1        0.0771
     42 N         141.5503  144.2147  164.0443 N.3     1  UNL1       -0.2685
     43 C         142.0203  145.0956  162.9249 C.3     1  UNL1        0.0899
     44 O         143.1988  139.0630  167.7174 O.3     1  UNL1       -0.4684
     45 C         143.7212  138.0526  166.7396 C.3     1  UNL1        0.2526
     46 O         140.5328  139.5610  168.9999 O.3     1  UNL1       -0.4684
     47 C         140.7550  139.9754  170.4243 C.3     1  UNL1        0.2526
@<TRIPOS>BOND
     1    23    24    1
     2    24    10    1
     3    10    11   ar
     4    11    12   ar
     5    12    13   ar
     6    13    14   ar
     7    14    15   ar
     8    15    16    1
     9    13    17    1
    10    17     9    1
    11     9     1    1
    12     1     2   ar
    13     2     3   ar
    14     3     4   ar
    15     4     5    1
    16     4     6   ar
    17     6    25    1
    18    25    26    1
    19    26    27   ar
    20    27    28   ar
    21    28    29   ar
    22    29    32    1
    23    33    32    1
    24    33    34    1
    25    34    35   ar
    26    35    36   ar
    27    36    44    1
    28    44    45    1
    29    36    37   ar
    30    37    46    1
    31    46    47    1
    32    37    38   ar
    33    38    39   ar
    34    39    40    1
    35    40    41    1
    36    41    42    1
    37    42    43    1
    38    29    30   ar
    39    30    31   ar
    40     6     7   ar
    41    17    18    1
    42    18    19    1
    43    18    20    1
    44    20    21    1
    45    15    10   ar
    46     7     1   ar
    47    21    12    1
    48    31    26   ar
    49    42    33    1
    50    39    34   ar
    51    16    22    1
    52     5     8    1
@<TRIPOS>MOLECULE
*****
 47 52 0 0 0
SMALL
GASTEIGER

@<TRIPOS>ATOM
      1 C         143.5431  139.4529  163.9949 C.ar    1  UNL1       -0.0173
      2 C         144.8595  140.0199  164.4375 C.ar    1  UNL1       -0.0009
      3 C         145.5565  141.0450  163.5930 C.ar    1  UNL1        0.0395
      4 C         144.9372  141.5032  162.3059 C.ar    1  UNL1        0.1683
      5 O         145.6342  142.5284  161.4614 O.3     1  UNL1       -0.5028
      6 C         143.6209  140.9363  161.8634 C.ar    1  UNL1        0.1784
      7 C         142.9239  139.9111  162.7079 C.ar    1  UNL1        0.0364
      8 H         146.4565  142.8825  161.7379 H       1  UNL1        0.2923
      9 C         142.8461  138.4277  164.8394 C.3     1  UNL1        0.0469
     10 C         140.7383  141.1177  169.0312 C.ar    1  UNL1        0.1718
     11 C         139.5746  140.5525  168.2720 C.ar    1  UNL1        0.0356
     12 C         139.8107  139.7386  167.0343 C.ar    1  UNL1       -0.0203
     13 C         141.2104  139.4901  166.5557 C.ar    1  UNL1       -0.0082
     14 C         142.3740  140.0554  167.3149 C.ar    1  UNL1        0.0365
     15 C         142.1379  140.8692  168.5526 C.ar    1  UNL1        0.1674
     16 O         143.3017  141.4345  169.3118 O.3     1  UNL1       -0.5029
     17 C         141.4464  138.6763  165.3180 C.3     1  UNL1        0.0843
     18 N         140.2828  138.1110  164.5588 N.3     1  UNL1       -0.2685
     19 C         140.5188  137.2972  163.3211 C.3     1  UNL1        0.0899
     20 C         138.8830  138.3595  165.0374 C.3     1  UNL1        0.0771
     21 C         138.6469  139.1733  166.2751 C.3     1  UNL1        0.0435
     22 H         144.1760  141.2793  169.0128 H       1  UNL1        0.2923
     23 C         140.3077  143.4153  170.1652 C.3     1  UNL1        0.2526
     24 O         140.5022  141.9316  170.2689 O.3     1  UNL1       -0.4684
     25 O         143.0017  141.3945  160.5763 O.3     1  UNL1       -0.4505
     26 C         143.2329  140.6174  159.3143 C.ar    1  UNL1        0.1454
     27 C         142.6509  139.2433  159.1623 C.ar    1  UNL1        0.0372
     28 C         142.8822  138.4663  157.9003 C.ar    1  UNL1       -0.0011
     29 C         143.6955  139.0633  156.7903 C.ar    1  UNL1       -0.0203
     30 C         144.2775  140.4374  156.9423 C.ar    1  UNL1       -0.0011
     31 C         144.0463  141.2145  158.2043 C.ar    1  UNL1        0.0372
     32 C         143.9268  138.2862  155.5283 C.3     1  UNL1        0.0468
     33 C         142.8284  137.4395  154.9569 C.3     1  UNL1        0.0843
     34 C         142.6878  136.0074  155.3805 C.ar    1  UNL1       -0.0081
     35 C         143.6456  135.4220  156.3754 C.ar    1  UNL1        0.0368
     36 C         143.5050  133.9900  156.7990 C.ar    1  UNL1        0.1721
     37 C         142.4066  133.1432  156.2276 C.ar    1  UNL1        0.1721
     38 C         141.4488  133.7286  155.2327 C.ar    1  UNL1        0.0356
     39 C         141.5894  135.1607  154.8091 C.ar    1  UNL1       -0.0203
     40 C         140.6315  135.7460  153.8141 C.3     1  UNL1        0.0435
     41 C         140.7721  137.1781  153.3906 C.3     1  UNL1        0.0771
     42 N         141.8705  138.0248  153.9620 N.3     1  UNL1       -0.2685
     43 C         142.0111  139.4569  153.5384 C.3     1  UNL1        0.0899
     44 O         144.4629  133.4046  157.7939 O.3     1  UNL1       -0.4684
     45 C         145.3470  132.2589  157.3994 C.3     1  UNL1        0.2526
     46 O         142.2660  131.7112  156.6512 O.3     1  UNL1       -0.4684
     47 C         142.4728  130.6103  155.6536 C.3     1  UNL1        0.2526
@<TRIPOS>BOND
     1    23    24    1
     2    24    10    1
     3    10    11   ar
     4    11    12   ar
     5    12    13   ar
     6    13    14   ar
     7    14    15   ar
     8    15    16    1
     9    13    17    1
    10    17     9    1
    11     9     1    1
    12     1     2   ar
    13     2     3   ar
    14     3     4   ar
    15     4     5    1
    16     4     6   ar
    17     6    25    1
    18    25    26    1
    19    26    27   ar
    20    27    28   ar
    21    28    29   ar
    22    29    32    1
    23    33    32    1
    24    33    34    1
    25    34    35   ar
    26    35    36   ar
    27    36    44    1
    28    44    45    1
    29    36    37   ar
    30    37    46    1
    31    46    47    1
    32    37    38   ar
    33    38    39   ar
    34    39    40    1
    35    40    41    1
    36    41    42    1
    37    42    43    1
    38    29    30   ar
    39    30    31   ar
    40     6     7   ar
    41    17    18    1
    42    18    19    1
    43    18    20    1
    44    20    21    1
    45    15    10   ar
    46     7     1   ar
    47    21    12    1
    48    31    26   ar
    49    42    33    1
    50    39    34   ar
    51    16    22    1
    52     5     8    1
@<TRIPOS>MOLECULE
*****
 47 52 0 0 0
SMALL
GASTEIGER

@<TRIPOS>ATOM
      1 C         142.6360  142.1942  165.6915 C.ar    1  UNL1       -0.0173
      2 C         144.0464  142.6976  165.7786 C.ar    1  UNL1       -0.0009
      3 C         144.4543  143.9219  165.0141 C.ar    1  UNL1        0.0395
      4 C         143.4518  144.6430  164.1624 C.ar    1  UNL1        0.1683
      5 O         143.8598  145.8674  163.3979 O.3     1  UNL1       -0.5028
      6 C         142.0415  144.1396  164.0753 C.ar    1  UNL1        0.1784
      7 C         141.6336  142.9152  164.8398 C.ar    1  UNL1        0.0364
      8 H         144.7408  146.1818  163.4524 H       1  UNL1        0.2923
      9 C         142.2280  140.9698  166.4560 C.3     1  UNL1        0.0469
     10 C         142.4755  137.9389  161.9837 C.ar    1  UNL1        0.1718
     11 C         141.1660  137.6101  162.6371 C.ar    1  UNL1        0.0356
     12 C         140.7768  138.2856  163.9186 C.ar    1  UNL1       -0.0203
     13 C         141.6970  139.2899  164.5466 C.ar    1  UNL1       -0.0082
     14 C         143.0065  139.6187  163.8931 C.ar    1  UNL1        0.0365
     15 C         143.3957  138.9432  162.6116 C.ar    1  UNL1        0.1674
     16 O         144.7053  139.2721  161.9581 O.3     1  UNL1       -0.5029
     17 C         141.3078  139.9655  165.8280 C.3     1  UNL1        0.0843
     18 N         139.9983  139.6367  166.4815 N.3     1  UNL1       -0.2685
     19 C         139.6091  140.3122  167.7630 C.3     1  UNL1        0.0899
     20 C         139.0780  138.6323  165.8536 C.3     1  UNL1        0.0771
     21 C         139.4672  137.9568  164.5721 C.3     1  UNL1        0.0435
     22 H         145.2802  139.8995  162.3504 H       1  UNL1        0.2923
     23 C         142.6621  137.9657  159.3924 C.3     1  UNL1        0.2526
     24 O         142.8647  137.2633  160.7022 O.3     1  UNL1       -0.4684
     25 O         141.0392  144.8606  163.2237 O.3     1  UNL1       -0.4505
     26 C         141.0425  144.6684  161.7360 C.ar    1  UNL1        0.1454
     27 C         140.2629  145.6013  160.8575 C.ar    1  UNL1        0.0372
     28 C         140.2662  145.4091  159.3699 C.ar    1  UNL1       -0.0011
     29 C         141.0492  144.2840  158.7608 C.ar    1  UNL1       -0.0203
     30 C         141.8288  143.3510  159.6393 C.ar    1  UNL1       -0.0011
     31 C         141.8255  143.5432  161.1270 C.ar    1  UNL1        0.0372
     32 C         141.0525  144.0918  157.2732 C.3     1  UNL1        0.0468
     33 C         139.8015  144.3363  156.4825 C.3     1  UNL1        0.0843
     34 C         138.7033  143.3146  156.4813 C.ar    1  UNL1       -0.0081
     35 C         138.8561  142.0484  157.2708 C.ar    1  UNL1        0.0368
     36 C         137.7579  141.0266  157.2696 C.ar    1  UNL1        0.1721
     37 C         136.5069  141.2711  156.4790 C.ar    1  UNL1        0.1721
     38 C         136.3541  142.5374  155.6895 C.ar    1  UNL1        0.0356
     39 C         137.4523  143.5591  155.6907 C.ar    1  UNL1       -0.0203
     40 C         137.2994  144.8254  154.9012 C.3     1  UNL1        0.0435
     41 C         138.3977  145.8471  154.9024 C.3     1  UNL1        0.0771
     42 N         139.6487  145.6025  155.6931 N.3     1  UNL1       -0.2685
     43 C         140.7469  146.6242  155.6943 C.3     1  UNL1        0.0899
     44 O         137.9107  139.7603  158.0591 O.3     1  UNL1       -0.4684
     45 C         138.8293  139.7217  159.2443 C.3     1  UNL1        0.2526
     46 O         135.4086  140.2494  156.4778 O.3     1  UNL1       -0.4684
     47 C         134.9929  139.5967  155.1929 C.3     1  UNL1        0.2526
@<TRIPOS>BOND
     1    23    24    1
     2    24    10    1
     3    10    11   ar
     4    11    12   ar
     5    12    13   ar
     6    13    14   ar
     7    14    15   ar
     8    15    16    1
     9    13    17    1
    10    17     9    1
    11     9     1    1
    12     1     2   ar
    13     2     3   ar
    14     3     4   ar
    15     4     5    1
    16     4     6   ar
    17     6    25    1
    18    25    26    1
    19    26    27   ar
    20    27    28   ar
    21    28    29   ar
    22    29    32    1
    23    33    32    1
    24    33    34    1
    25    34    35   ar
    26    35    36   ar
    27    36    44    1
    28    44    45    1
    29    36    37   ar
    30    37    46    1
    31    46    47    1
    32    37    38   ar
    33    38    39   ar
    34    39    40    1
    35    40    41    1
    36    41    42    1
    37    42    43    1
    38    29    30   ar
    39    30    31   ar
    40     6     7   ar
    41    17    18    1
    42    18    19    1
    43    18    20    1
    44    20    21    1
    45    15    10   ar
    46     7     1   ar
    47    21    12    1
    48    31    26   ar
    49    42    33    1
    50    39    34   ar
    51    16    22    1
    52     5     8    1
