@<TRIPOS>MOLECULE
*****
 38 42 0 0 0
SMALL
GASTEIGER

@<TRIPOS>ATOM
      1 C         139.3283  143.6065  164.8591 C.3     1  UNL1        0.0438
      2 C         142.1796  142.0574  167.1440 C.ar    1  UNL1        0.0165
      3 C         143.4079  142.5363  166.4284 C.ar    1  UNL1        0.0014
      4 C         143.2763  143.3719  165.1897 C.ar    1  UNL1       -0.0003
      5 C         141.9164  143.7286  164.6667 C.ar    1  UNL1       -0.0042
      6 C         140.6882  143.2497  165.3823 C.ar    1  UNL1       -0.0207
      7 C         140.8198  142.4141  166.6209 C.ar    1  UNL1       -0.0028
      8 C         143.0450  137.9750  170.3793 C.3     1  UNL1        0.0716
      9 C         142.7089  139.3453  169.8698 C.ar    1  UNL1        0.1171
     10 N         142.3184  140.5264  170.7081 N.ar    1  UNL1       -0.2355
     11 C         142.0726  141.6861  169.7890 C.ar    1  UNL1        0.0761
     12 C         141.6605  143.0675  170.2034 C.3     1  UNL1        0.0537
     13 C         142.3112  141.2218  168.3827 C.ar    1  UNL1        0.0711
     14 N         142.7045  139.7751  168.4327 N.ar    1  UNL1       -0.3410
     15 H         142.9216  139.2074  167.6583 H       1  UNL1        0.1671
     16 C         139.0979  144.9434  164.2193 C.3     1  UNL1        0.0474
     17 C         139.1114  145.0720  162.7248 C.2     1  UNL1        0.0507
     18 O         138.1503  144.2738  161.8946 O.co2   1  UNL1       -0.5492
     19 O         140.0861  145.9988  162.0607 O.co2   1  UNL1       -0.5492
     20 C         138.1990  142.6262  164.9758 C.3     1  UNL1        0.0768
     21 N         138.2898  141.2928  164.2949 N.3     1  UNL1       -0.2724
     22 C         137.7789  140.9668  162.9227 C.3     1  UNL1        0.0721
     23 C         138.0809  139.5238  162.6463 C.3     1  UNL1        0.0187
     24 C         138.7784  138.9578  163.8476 C.3     1  UNL1        0.0178
     25 C         138.9075  140.0511  164.8664 C.3     1  UNL1        0.0721
     26 C         139.2619  137.5464  164.0027 C.3     1  UNL1        0.0077
     27 C         140.6013  137.1483  163.4574 C.3     1  UNL1        0.0459
     28 C         141.7782  138.0646  163.6161 C.ar    1  UNL1        0.0603
     29 C         142.5752  138.0486  164.8867 C.ar    1  UNL1        0.0145
     30 C         143.7521  138.9649  165.0455 C.ar    1  UNL1       -0.0003
     31 C         144.1321  139.8973  163.9335 C.ar    1  UNL1        0.0092
     32 C         143.3351  139.9133  162.6628 C.ar    1  UNL1        0.1240
     33 N         142.1582  138.9969  162.5041 N.ar    1  UNL1       -0.2356
     34 N         143.7150  140.8456  161.5509 N.pl3   1  UNL1       -0.3184
     35 C         144.8919  141.7619  161.7096 C.3     1  UNL1        0.0885
     36 C         145.6889  141.7459  162.9803 C.3     1  UNL1        0.0260
     37 C         145.3090  140.8136  164.0922 C.3     1  UNL1        0.0309
     38 H         143.1920  140.8561  160.7169 H       1  UNL1        0.1482
@<TRIPOS>UNITY_ATOM_ATTR
18 1
charge -1
@<TRIPOS>BOND
     1     8     9    1
     2     9    10   ar
     3    10    11   ar
     4    11    12    1
     5    11    13   ar
     6    13     2    1
     7     2     3   ar
     8     3     4   ar
     9     4     5   ar
    10     5     6   ar
    11     6     1    1
    12     1    16    1
    13    16    17    1
    14    17    18   ar
    15    17    19   ar
    16     1    20    1
    17    20    21    1
    18    21    22    1
    19    22    23    1
    20    23    24    1
    21    24    26    1
    22    26    27    1
    23    27    28    1
    24    28    29   ar
    25    29    30   ar
    26    30    31   ar
    27    31    32   ar
    28    32    33   ar
    29    32    34    1
    30    34    35    1
    31    35    36    1
    32    36    37    1
    33    24    25    1
    34     6     7   ar
    35    13    14   ar
    36    14     9   ar
    37     7     2   ar
    38    25    21    1
    39    33    28   ar
    40    37    31    1
    41    34    38    1
    42    14    15    1
@<TRIPOS>MOLECULE
*****
 38 42 0 0 0
SMALL
GASTEIGER

@<TRIPOS>ATOM
      1 C         139.3363  143.5326  164.2309 C.3     1  UNL1        0.0438
      2 C         140.7402  142.0034  167.6134 C.ar    1  UNL1        0.0165
      3 C         140.0680  140.6625  167.6187 C.ar    1  UNL1        0.0014
      4 C         139.1519  140.2782  166.4949 C.ar    1  UNL1       -0.0003
      5 C         138.9080  141.2349  165.3656 C.ar    1  UNL1       -0.0042
      6 C         139.5802  142.5759  165.3602 C.ar    1  UNL1       -0.0207
      7 C         140.4963  142.9601  166.4841 C.ar    1  UNL1       -0.0028
      8 C         145.0969  143.0582  170.4040 C.3     1  UNL1        0.0716
      9 C         143.6588  142.8725  170.0200 C.ar    1  UNL1        0.1171
     10 N         142.4730  143.0856  170.9136 N.ar    1  UNL1       -0.2355
     11 C         141.2354  142.7859  170.1209 C.ar    1  UNL1        0.0761
     12 C         139.8246  142.8698  170.6235 C.3     1  UNL1        0.0537
     13 C         141.6562  142.3877  168.7373 C.ar    1  UNL1        0.0711
     14 N         143.1539  142.4412  168.6749 N.ar    1  UNL1       -0.3410
     15 H         143.7083  142.2303  167.8892 H       1  UNL1        0.1671
     16 C         138.0029  143.5582  163.5444 C.3     1  UNL1        0.0474
     17 C         137.8091  142.8178  162.2543 C.2     1  UNL1        0.0507
     18 O         137.1517  141.4695  162.2548 O.co2   1  UNL1       -0.5492
     19 O         138.2727  143.4257  160.9638 O.co2   1  UNL1       -0.5492
     20 C         140.4258  144.4637  163.7881 C.3     1  UNL1        0.0768
     21 N         141.6912  143.9121  163.2011 N.3     1  UNL1       -0.2724
     22 C         142.0390  143.8643  161.7427 C.3     1  UNL1        0.0721
     23 C         143.3936  143.2341  161.6096 C.3     1  UNL1        0.0187
     24 C         143.8831  142.8923  162.9857 C.3     1  UNL1        0.0178
     25 C         142.8309  143.3113  163.9692 C.3     1  UNL1        0.0721
     26 C         145.1944  142.2452  163.3195 C.3     1  UNL1        0.0077
     27 C         145.2562  140.7709  163.5886 C.3     1  UNL1        0.0459
     28 C         143.9920  139.9969  163.8188 C.ar    1  UNL1        0.0603
     29 C         143.6736  139.4703  165.1868 C.ar    1  UNL1        0.0145
     30 C         142.4095  138.6963  165.4170 C.ar    1  UNL1       -0.0003
     31 C         141.4638  138.4489  164.2792 C.ar    1  UNL1        0.0092
     32 C         141.7822  138.9755  162.9113 C.ar    1  UNL1        0.1240
     33 N         143.0464  139.7495  162.6811 N.ar    1  UNL1       -0.2356
     34 N         140.8365  138.7281  161.7735 N.pl3   1  UNL1       -0.3184
     35 C         139.5725  137.9542  162.0037 C.3     1  UNL1        0.0885
     36 C         139.2540  137.4276  163.3717 C.3     1  UNL1        0.0260
     37 C         140.1997  137.6750  164.5094 C.3     1  UNL1        0.0309
     38 H         141.0455  139.0737  160.8757 H       1  UNL1        0.1482
@<TRIPOS>UNITY_ATOM_ATTR
18 1
charge -1
@<TRIPOS>BOND
     1     8     9    1
     2     9    10   ar
     3    10    11   ar
     4    11    12    1
     5    11    13   ar
     6    13     2    1
     7     2     3   ar
     8     3     4   ar
     9     4     5   ar
    10     5     6   ar
    11     6     1    1
    12     1    16    1
    13    16    17    1
    14    17    18   ar
    15    17    19   ar
    16     1    20    1
    17    20    21    1
    18    21    22    1
    19    22    23    1
    20    23    24    1
    21    24    26    1
    22    26    27    1
    23    27    28    1
    24    28    29   ar
    25    29    30   ar
    26    30    31   ar
    27    31    32   ar
    28    32    33   ar
    29    32    34    1
    30    34    35    1
    31    35    36    1
    32    36    37    1
    33    24    25    1
    34     6     7   ar
    35    13    14   ar
    36    14     9   ar
    37     7     2   ar
    38    25    21    1
    39    33    28   ar
    40    37    31    1
    41    34    38    1
    42    14    15    1
@<TRIPOS>MOLECULE
*****
 38 42 0 0 0
SMALL
GASTEIGER

@<TRIPOS>ATOM
      1 C         140.0945  144.2373  164.0945 C.3     1  UNL1        0.0438
      2 C         140.2760  141.6210  167.0732 C.ar    1  UNL1        0.0165
      3 C         139.2531  140.6169  166.6313 C.ar    1  UNL1        0.0014
      4 C         138.5107  140.8195  165.3438 C.ar    1  UNL1       -0.0003
      5 C         138.7911  142.0263  164.4982 C.ar    1  UNL1       -0.0042
      6 C         139.8140  143.0305  164.9402 C.ar    1  UNL1       -0.0207
      7 C         140.5565  142.8278  166.2277 C.ar    1  UNL1       -0.0028
      8 C         143.3089  139.5042  170.8418 C.3     1  UNL1        0.0716
      9 C         142.4125  140.4455  170.0930 C.ar    1  UNL1        0.1171
     10 N         141.9095  141.7678  170.5912 N.ar    1  UNL1       -0.2355
     11 C         141.0479  142.3692  169.5206 C.ar    1  UNL1        0.0761
     12 C         140.3400  143.6895  169.5966 C.3     1  UNL1        0.0537
     13 C         141.0185  141.4184  168.3607 C.ar    1  UNL1        0.0711
     14 N         141.8619  140.2295  168.7145 N.ar    1  UNL1       -0.3410
     15 H         142.0253  139.4452  168.1424 H       1  UNL1        0.1671
     16 C         139.0130  144.8158  163.2310 C.3     1  UNL1        0.0474
     17 C         139.3513  145.3814  161.8835 C.2     1  UNL1        0.0507
     18 O         139.3377  144.4954  160.6732 O.co2   1  UNL1       -0.5492
     19 O         139.7032  146.8331  161.7464 O.co2   1  UNL1       -0.5492
     20 C         141.4565  144.8656  164.1125 C.3     1  UNL1        0.0768
     21 N         142.6474  144.0882  163.6359 N.3     1  UNL1       -0.2724
     22 C         143.1798  144.0621  162.2338 C.3     1  UNL1        0.0721
     23 C         144.3765  143.1582  162.2091 C.3     1  UNL1        0.0187
     24 C         144.5839  142.6256  163.5959 C.3     1  UNL1        0.0178
     25 C         143.5152  143.2004  164.4777 C.3     1  UNL1        0.0721
     26 C         145.6692  141.6836  164.0254 C.3     1  UNL1        0.0077
     27 C         145.4815  140.2033  163.8722 C.3     1  UNL1        0.0459
     28 C         144.1138  139.6026  164.0088 C.ar    1  UNL1        0.0603
     29 C         143.5946  139.2199  165.3630 C.ar    1  UNL1        0.0145
     30 C         142.2269  138.6192  165.4996 C.ar    1  UNL1       -0.0003
     31 C         141.3785  138.4011  164.2819 C.ar    1  UNL1        0.0092
     32 C         141.8977  138.7838  162.9277 C.ar    1  UNL1        0.1240
     33 N         143.2655  139.3846  162.7911 N.ar    1  UNL1       -0.2356
     34 N         141.0494  138.5659  161.7100 N.pl3   1  UNL1       -0.3184
     35 C         139.6817  137.9652  161.8466 C.3     1  UNL1        0.0885
     36 C         139.1625  137.5825  163.2008 C.3     1  UNL1        0.0260
     37 C         140.0109  137.8004  164.4185 C.3     1  UNL1        0.0309
     38 H         141.3902  138.8170  160.8212 H       1  UNL1        0.1482
@<TRIPOS>UNITY_ATOM_ATTR
18 1
charge -1
@<TRIPOS>BOND
     1     8     9    1
     2     9    10   ar
     3    10    11   ar
     4    11    12    1
     5    11    13   ar
     6    13     2    1
     7     2     3   ar
     8     3     4   ar
     9     4     5   ar
    10     5     6   ar
    11     6     1    1
    12     1    16    1
    13    16    17    1
    14    17    18   ar
    15    17    19   ar
    16     1    20    1
    17    20    21    1
    18    21    22    1
    19    22    23    1
    20    23    24    1
    21    24    26    1
    22    26    27    1
    23    27    28    1
    24    28    29   ar
    25    29    30   ar
    26    30    31   ar
    27    31    32   ar
    28    32    33   ar
    29    32    34    1
    30    34    35    1
    31    35    36    1
    32    36    37    1
    33    24    25    1
    34     6     7   ar
    35    13    14   ar
    36    14     9   ar
    37     7     2   ar
    38    25    21    1
    39    33    28   ar
    40    37    31    1
    41    34    38    1
    42    14    15    1
@<TRIPOS>MOLECULE
*****
 38 42 0 0 0
SMALL
GASTEIGER

@<TRIPOS>ATOM
      1 C         140.0188  138.4415  164.2777 C.3     1  UNL1        0.0438
      2 C         140.5515  141.3929  166.8768 C.ar    1  UNL1        0.0165
      3 C         139.6291  142.4344  166.3161 C.ar    1  UNL1        0.0014
      4 C         138.8366  142.1450  165.0759 C.ar    1  UNL1       -0.0003
      5 C         138.9665  140.8140  164.3964 C.ar    1  UNL1       -0.0042
      6 C         139.8889  139.7725  164.9572 C.ar    1  UNL1       -0.0207
      7 C         140.6814  140.0620  166.1974 C.ar    1  UNL1       -0.0028
      8 C         144.4822  142.7963  170.1113 C.3     1  UNL1        0.0716
      9 C         143.1507  142.3275  169.6038 C.ar    1  UNL1        0.1171
     10 N         141.9764  141.9282  170.4473 N.ar    1  UNL1       -0.2355
     11 C         140.8598  141.5295  169.5285 C.ar    1  UNL1        0.0761
     12 C         139.4981  141.0604  169.9476 C.3     1  UNL1        0.0537
     13 C         141.3440  141.6824  168.1170 C.ar    1  UNL1        0.0711
     14 N         142.7598  142.1755  168.1636 N.ar    1  UNL1       -0.3410
     15 H         143.3321  142.3660  167.3854 H       1  UNL1        0.1671
     16 C         138.8277  137.8210  163.6096 C.3     1  UNL1        0.0474
     17 C         138.6077  138.0142  162.1384 C.2     1  UNL1        0.0507
     18 O         139.6987  137.6758  161.1662 O.co2   1  UNL1       -0.5492
     19 O         137.2968  138.5458  161.6396 O.co2   1  UNL1       -0.5492
     20 C         141.3398  137.7309  164.2663 C.3     1  UNL1        0.0768
     21 N         142.5567  138.4188  163.7222 N.3     1  UNL1       -0.2724
     22 C         143.0580  138.3382  162.3107 C.3     1  UNL1        0.0721
     23 C         144.2971  139.1776  162.2103 C.3     1  UNL1        0.0187
     24 C         144.5616  139.7769  163.5596 C.3     1  UNL1        0.0178
     25 C         143.4860  139.3079  164.4941 C.3     1  UNL1        0.0721
     26 C         145.7016  140.6856  163.9126 C.3     1  UNL1        0.0077
     27 C         145.6755  142.1228  163.4837 C.3     1  UNL1        0.0459
     28 C         144.3731  142.8647  163.4259 C.ar    1  UNL1        0.0603
     29 C         143.5557  143.0432  164.6710 C.ar    1  UNL1        0.0145
     30 C         142.2534  143.7851  164.6132 C.ar    1  UNL1       -0.0003
     31 C         141.7683  144.3486  163.3104 C.ar    1  UNL1        0.0092
     32 C         142.5857  144.1701  162.0654 C.ar    1  UNL1        0.1240
     33 N         143.8881  143.4281  162.1232 N.ar    1  UNL1       -0.2356
     34 N         142.1007  144.7335  160.7626 N.pl3   1  UNL1       -0.3184
     35 C         140.7983  145.4754  160.7048 C.3     1  UNL1        0.0885
     36 C         139.9810  145.6539  161.9498 C.3     1  UNL1        0.0260
     37 C         140.4659  145.0905  163.2526 C.3     1  UNL1        0.0309
     38 H         142.6371  144.6164  159.9454 H       1  UNL1        0.1482
@<TRIPOS>UNITY_ATOM_ATTR
18 1
charge -1
@<TRIPOS>BOND
     1     8     9    1
     2     9    10   ar
     3    10    11   ar
     4    11    12    1
     5    11    13   ar
     6    13     2    1
     7     2     3   ar
     8     3     4   ar
     9     4     5   ar
    10     5     6   ar
    11     6     1    1
    12     1    16    1
    13    16    17    1
    14    17    18   ar
    15    17    19   ar
    16     1    20    1
    17    20    21    1
    18    21    22    1
    19    22    23    1
    20    23    24    1
    21    24    26    1
    22    26    27    1
    23    27    28    1
    24    28    29   ar
    25    29    30   ar
    26    30    31   ar
    27    31    32   ar
    28    32    33   ar
    29    32    34    1
    30    34    35    1
    31    35    36    1
    32    36    37    1
    33    24    25    1
    34     6     7   ar
    35    13    14   ar
    36    14     9   ar
    37     7     2   ar
    38    25    21    1
    39    33    28   ar
    40    37    31    1
    41    34    38    1
    42    14    15    1
@<TRIPOS>MOLECULE
*****
 38 42 0 0 0
SMALL
GASTEIGER

@<TRIPOS>ATOM
      1 C         139.2802  138.7032  164.7420 C.3     1  UNL1        0.0438
      2 C         141.0376  140.5891  167.7595 C.ar    1  UNL1        0.0165
      3 C         142.4430  140.0806  167.6317 C.ar    1  UNL1        0.0014
      4 C         142.7941  139.1130  166.5407 C.ar    1  UNL1       -0.0003
      5 C         141.7399  138.6538  165.5775 C.ar    1  UNL1       -0.0042
      6 C         140.3345  139.1623  165.7053 C.ar    1  UNL1       -0.0207
      7 C         139.9833  140.1300  166.7963 C.ar    1  UNL1       -0.0028
      8 C         140.0513  145.0709  170.3713 C.3     1  UNL1        0.0716
      9 C         140.2330  143.6168  170.0511 C.ar    1  UNL1        0.1171
     10 N         140.0589  142.4748  171.0079 N.ar    1  UNL1       -0.2355
     11 C         140.3391  141.2016  170.2659 C.ar    1  UNL1        0.0761
     12 C         140.2820  139.8165  170.8388 C.3     1  UNL1        0.0537
     13 C         140.6864  141.5567  168.8505 C.ar    1  UNL1        0.0711
     14 N         140.6208  143.0494  168.7177 N.ar    1  UNL1       -0.3410
     15 H         140.8007  143.5660  167.8992 H       1  UNL1        0.1671
     16 C         139.4979  137.4628  163.9270 C.3     1  UNL1        0.0474
     17 C         139.9627  137.5716  162.5050 C.2     1  UNL1        0.0507
     18 O         141.4104  137.3641  162.1712 O.co2   1  UNL1       -0.5492
     19 O         138.9800  137.8880  161.4169 O.co2   1  UNL1       -0.5492
     20 C         138.0083  139.4844  164.5937 C.3     1  UNL1        0.0768
     21 N         137.9883  140.7345  163.7649 N.3     1  UNL1       -0.2724
     22 C         137.7485  140.8081  162.2859 C.3     1  UNL1        0.0721
     23 C         137.8165  142.2495  161.8765 C.3     1  UNL1        0.0187
     24 C         138.0984  143.0668  163.1024 C.3     1  UNL1        0.0178
     25 C         138.2046  142.1304  164.2694 C.3     1  UNL1        0.0721
     26 C         138.2479  144.5584  163.1523 C.3     1  UNL1        0.0077
     27 C         139.6151  145.1753  163.1588 C.3     1  UNL1        0.0459
     28 C         140.8091  144.3489  163.5348 C.ar    1  UNL1        0.0603
     29 C         140.9614  143.8470  164.9401 C.ar    1  UNL1        0.0145
     30 C         142.1553  143.0206  165.3162 C.ar    1  UNL1       -0.0003
     31 C         143.1971  142.6959  164.2868 C.ar    1  UNL1        0.0092
     32 C         143.0448  143.1977  162.8815 C.ar    1  UNL1        0.1240
     33 N         141.8508  144.0242  162.5055 N.ar    1  UNL1       -0.2356
     34 N         144.0864  142.8731  161.8522 N.pl3   1  UNL1       -0.3184
     35 C         145.2804  142.0466  162.2282 C.3     1  UNL1        0.0885
     36 C         145.4327  141.5448  163.6336 C.3     1  UNL1        0.0260
     37 C         144.3910  141.8695  164.6629 C.3     1  UNL1        0.0309
     38 H         143.9865  143.2024  160.9298 H       1  UNL1        0.1482
@<TRIPOS>UNITY_ATOM_ATTR
18 1
charge -1
@<TRIPOS>BOND
     1     8     9    1
     2     9    10   ar
     3    10    11   ar
     4    11    12    1
     5    11    13   ar
     6    13     2    1
     7     2     3   ar
     8     3     4   ar
     9     4     5   ar
    10     5     6   ar
    11     6     1    1
    12     1    16    1
    13    16    17    1
    14    17    18   ar
    15    17    19   ar
    16     1    20    1
    17    20    21    1
    18    21    22    1
    19    22    23    1
    20    23    24    1
    21    24    26    1
    22    26    27    1
    23    27    28    1
    24    28    29   ar
    25    29    30   ar
    26    30    31   ar
    27    31    32   ar
    28    32    33   ar
    29    32    34    1
    30    34    35    1
    31    35    36    1
    32    36    37    1
    33    24    25    1
    34     6     7   ar
    35    13    14   ar
    36    14     9   ar
    37     7     2   ar
    38    25    21    1
    39    33    28   ar
    40    37    31    1
    41    34    38    1
    42    14    15    1
@<TRIPOS>MOLECULE
*****
 38 42 0 0 0
SMALL
GASTEIGER

@<TRIPOS>ATOM
      1 C         140.7360  144.1654  163.2440 C.3     1  UNL1        0.0438
      2 C         142.5753  142.5323  166.3585 C.ar    1  UNL1        0.0165
      3 C         143.9902  142.9641  166.1106 C.ar    1  UNL1        0.0014
      4 C         144.3204  143.7964  164.9071 C.ar    1  UNL1       -0.0003
      5 C         143.2357  144.1968  163.9516 C.ar    1  UNL1       -0.0042
      6 C         141.8207  143.7649  164.1996 C.ar    1  UNL1       -0.0207
      7 C         141.4905  142.9327  165.4030 C.ar    1  UNL1       -0.0028
      8 C         142.5345  138.6118  169.8954 C.3     1  UNL1        0.0716
      9 C         142.2263  139.8980  169.1877 C.ar    1  UNL1        0.1171
     10 N         141.2475  140.9407  169.6402 N.ar    1  UNL1       -0.2355
     11 C         141.2591  142.0544  168.6355 C.ar    1  UNL1        0.0761
     12 C         140.4302  143.3033  168.6939 C.3     1  UNL1        0.0537
     13 C         142.2451  141.7001  167.5620 C.ar    1  UNL1        0.0711
     14 N         142.8428  140.3674  167.9033 N.ar    1  UNL1       -0.3410
     15 H         143.5208  139.8853  167.3768 H       1  UNL1        0.1671
     16 C         141.0872  144.8346  161.9483 C.3     1  UNL1        0.0474
     17 C         140.0003  145.2786  161.0148 C.2     1  UNL1        0.0507
     18 O         139.2777  146.5692  161.2648 O.co2   1  UNL1       -0.5492
     19 O         139.6360  144.4322  159.8312 O.co2   1  UNL1       -0.5492
     20 C         139.3000  143.8965  163.5841 C.3     1  UNL1        0.0768
     21 N         138.7875  142.4871  163.6140 N.3     1  UNL1       -0.2724
     22 C         138.0764  141.8316  164.7607 C.3     1  UNL1        0.0721
     23 C         137.7455  140.4251  164.3579 C.3     1  UNL1        0.0187
     24 C         138.2520  140.2113  162.9623 C.3     1  UNL1        0.0178
     25 C         138.8960  141.4857  162.5026 C.3     1  UNL1        0.0721
     26 C         138.1351  138.9455  162.1662 C.3     1  UNL1        0.0077
     27 C         139.2591  137.9521  162.1676 C.3     1  UNL1        0.0459
     28 C         140.5600  138.2925  162.8323 C.ar    1  UNL1        0.0603
     29 C         140.9069  137.6828  164.1581 C.ar    1  UNL1        0.0145
     30 C         142.2078  138.0231  164.8228 C.ar    1  UNL1       -0.0003
     31 C         143.1619  138.9732  164.1616 C.ar    1  UNL1        0.0092
     32 C         142.8150  139.5830  162.8358 C.ar    1  UNL1        0.1240
     33 N         141.5140  139.2426  162.1711 N.ar    1  UNL1       -0.2356
     34 N         143.7689  140.5331  162.1746 N.pl3   1  UNL1       -0.3184
     35 C         145.0698  140.8734  162.8393 C.3     1  UNL1        0.0885
     36 C         145.4167  140.2637  164.1651 C.3     1  UNL1        0.0260
     37 C         144.4627  139.3136  164.8263 C.3     1  UNL1        0.0309
     38 H         143.5413  140.9333  161.3044 H       1  UNL1        0.1482
@<TRIPOS>UNITY_ATOM_ATTR
18 1
charge -1
@<TRIPOS>BOND
     1     8     9    1
     2     9    10   ar
     3    10    11   ar
     4    11    12    1
     5    11    13   ar
     6    13     2    1
     7     2     3   ar
     8     3     4   ar
     9     4     5   ar
    10     5     6   ar
    11     6     1    1
    12     1    16    1
    13    16    17    1
    14    17    18   ar
    15    17    19   ar
    16     1    20    1
    17    20    21    1
    18    21    22    1
    19    22    23    1
    20    23    24    1
    21    24    26    1
    22    26    27    1
    23    27    28    1
    24    28    29   ar
    25    29    30   ar
    26    30    31   ar
    27    31    32   ar
    28    32    33   ar
    29    32    34    1
    30    34    35    1
    31    35    36    1
    32    36    37    1
    33    24    25    1
    34     6     7   ar
    35    13    14   ar
    36    14     9   ar
    37     7     2   ar
    38    25    21    1
    39    33    28   ar
    40    37    31    1
    41    34    38    1
    42    14    15    1
@<TRIPOS>MOLECULE
*****
 38 42 0 0 0
SMALL
GASTEIGER

@<TRIPOS>ATOM
      1 C         141.2416  141.8292  167.9029 C.3     1  UNL1        0.0438
      2 C         141.7761  143.6653  164.4254 C.ar    1  UNL1        0.0165
      3 C         143.2739  143.6960  164.3483 C.ar    1  UNL1        0.0014
      4 C         144.0942  143.1045  165.4561 C.ar    1  UNL1       -0.0003
      5 C         143.4167  142.4823  166.6409 C.ar    1  UNL1       -0.0042
      6 C         141.9190  142.4515  166.7180 C.ar    1  UNL1       -0.0207
      7 C         141.0987  143.0430  165.6102 C.ar    1  UNL1       -0.0028
      8 C         140.2559  145.3881  159.6712 C.3     1  UNL1        0.0716
      9 C         140.2570  145.0487  161.1323 C.ar    1  UNL1        0.1171
     10 N         139.1299  145.2854  162.0934 N.ar    1  UNL1       -0.2355
     11 C         139.5618  144.7960  163.4439 C.ar    1  UNL1        0.0761
     12 C         138.7433  144.8383  164.7002 C.3     1  UNL1        0.0537
     13 C         140.9559  144.2568  163.3176 C.ar    1  UNL1        0.0711
     14 N         141.3855  144.4129  161.8890 N.ar    1  UNL1       -0.3410
     15 H         142.2554  144.1452  161.5138 H       1  UNL1        0.1671
     16 C         141.8914  141.8859  169.2537 C.3     1  UNL1        0.0474
     17 C         141.8797  143.1642  170.0385 C.2     1  UNL1        0.0507
     18 O         143.1141  143.6092  170.7655 O.co2   1  UNL1       -0.5492
     19 O         140.6338  143.9974  170.0964 O.co2   1  UNL1       -0.5492
     20 C         139.9144  141.1501  167.7370 C.3     1  UNL1        0.0768
     21 N         139.7587  140.0418  166.7384 N.3     1  UNL1       -0.2724
     22 C         138.4788  139.6249  166.0763 C.3     1  UNL1        0.0721
     23 C         138.7846  138.4811  165.1552 C.3     1  UNL1        0.0187
     24 C         140.2533  138.1911  165.2481 C.3     1  UNL1        0.0178
     25 C         140.8553  139.1556  166.2265 C.3     1  UNL1        0.0721
     26 C         140.9906  137.1239  164.4948 C.3     1  UNL1        0.0077
     27 C         141.4275  137.3696  163.0810 C.3     1  UNL1        0.0459
     28 C         142.3307  138.5248  162.7651 C.ar    1  UNL1        0.0603
     29 C         143.5090  138.8183  163.6458 C.ar    1  UNL1        0.0145
     30 C         144.4122  139.9734  163.3300 C.ar    1  UNL1       -0.0003
     31 C         144.1372  140.8351  162.1334 C.ar    1  UNL1        0.0092
     32 C         142.9590  140.5417  161.2526 C.ar    1  UNL1        0.1240
     33 N         142.0557  139.3865  161.5685 N.ar    1  UNL1       -0.2356
     34 N         142.6840  141.4034  160.0561 N.pl3   1  UNL1       -0.3184
     35 C         143.5873  142.5585  159.7402 C.3     1  UNL1        0.0885
     36 C         144.7655  142.8519  160.6209 C.3     1  UNL1        0.0260
     37 C         145.0405  141.9903  161.8175 C.3     1  UNL1        0.0309
     38 H         141.9107  141.2108  159.4780 H       1  UNL1        0.1482
@<TRIPOS>UNITY_ATOM_ATTR
18 1
charge -1
@<TRIPOS>BOND
     1     8     9    1
     2     9    10   ar
     3    10    11   ar
     4    11    12    1
     5    11    13   ar
     6    13     2    1
     7     2     3   ar
     8     3     4   ar
     9     4     5   ar
    10     5     6   ar
    11     6     1    1
    12     1    16    1
    13    16    17    1
    14    17    18   ar
    15    17    19   ar
    16     1    20    1
    17    20    21    1
    18    21    22    1
    19    22    23    1
    20    23    24    1
    21    24    26    1
    22    26    27    1
    23    27    28    1
    24    28    29   ar
    25    29    30   ar
    26    30    31   ar
    27    31    32   ar
    28    32    33   ar
    29    32    34    1
    30    34    35    1
    31    35    36    1
    32    36    37    1
    33    24    25    1
    34     6     7   ar
    35    13    14   ar
    36    14     9   ar
    37     7     2   ar
    38    25    21    1
    39    33    28   ar
    40    37    31    1
    41    34    38    1
    42    14    15    1
@<TRIPOS>MOLECULE
*****
 38 42 0 0 0
SMALL
GASTEIGER

@<TRIPOS>ATOM
      1 C         140.3139  139.8172  161.3523 C.3     1  UNL1        0.0438
      2 C         138.9906  140.9663  164.9130 C.ar    1  UNL1        0.0165
      3 C         137.9004  141.9174  164.5168 C.ar    1  UNL1        0.0014
      4 C         137.6147  142.1684  163.0659 C.ar    1  UNL1       -0.0003
      5 C         138.4192  141.4683  162.0111 C.ar    1  UNL1       -0.0042
      6 C         139.5094  140.5172  162.4072 C.ar    1  UNL1       -0.0207
      7 C         139.7951  140.2663  163.8582 C.ar    1  UNL1       -0.0028
      8 C         140.8703  141.4706  169.8215 C.3     1  UNL1        0.0716
      9 C         140.1403  140.9471  168.6202 C.ar    1  UNL1        0.1171
     10 N         139.2917  139.7111  168.5735 N.ar    1  UNL1       -0.2355
     11 C         138.7577  139.5679  167.1791 C.ar    1  UNL1        0.0761
     12 C         137.8623  138.4699  166.6863 C.3     1  UNL1        0.0537
     13 C         139.2763  140.7154  166.3640 C.ar    1  UNL1        0.0711
     14 N         140.1308  141.5677  167.2546 N.ar    1  UNL1       -0.3410
     15 H         140.6026  142.3902  166.9895 H       1  UNL1        0.1671
     16 C         140.1284  140.1743  159.9073 C.3     1  UNL1        0.0474
     17 C         141.1203  141.0667  159.2220 C.2     1  UNL1        0.0507
     18 O         141.2988  142.4830  159.6830 O.co2   1  UNL1       -0.5492
     19 O         141.9337  140.5429  158.0757 O.co2   1  UNL1       -0.5492
     20 C         141.3039  138.7599  161.7425 C.3     1  UNL1        0.0768
     21 N         142.4623  139.1080  162.6295 N.3     1  UNL1       -0.2724
     22 C         142.8452  138.4031  163.8971 C.3     1  UNL1        0.0721
     23 C         144.0608  139.0815  164.4557 C.3     1  UNL1        0.0187
     24 C         144.4293  140.2056  163.5335 C.3     1  UNL1        0.0178
     25 C         143.4414  140.2220  162.4048 C.3     1  UNL1        0.0721
     26 C         145.5830  141.1479  163.7091 C.3     1  UNL1        0.0077
     27 C         145.3313  142.5853  164.0562 C.3     1  UNL1        0.0459
     28 C         143.9584  143.1671  163.8922 C.ar    1  UNL1        0.0603
     29 C         142.9639  143.0694  165.0109 C.ar    1  UNL1        0.0145
     30 C         141.5911  143.6512  164.8469 C.ar    1  UNL1       -0.0003
     31 C         141.2128  144.3308  163.5643 C.ar    1  UNL1        0.0092
     32 C         142.2073  144.4286  162.4456 C.ar    1  UNL1        0.1240
     33 N         143.5802  143.8467  162.6096 N.ar    1  UNL1       -0.2356
     34 N         141.8291  145.1081  161.1631 N.pl3   1  UNL1       -0.3184
     35 C         140.4563  145.6899  160.9991 C.3     1  UNL1        0.0885
     36 C         139.4618  145.5922  162.1178 C.3     1  UNL1        0.0260
     37 C         139.8400  144.9126  163.4003 C.3     1  UNL1        0.0309
     38 H         142.4818  145.1722  160.4288 H       1  UNL1        0.1482
@<TRIPOS>UNITY_ATOM_ATTR
18 1
charge -1
@<TRIPOS>BOND
     1     8     9    1
     2     9    10   ar
     3    10    11   ar
     4    11    12    1
     5    11    13   ar
     6    13     2    1
     7     2     3   ar
     8     3     4   ar
     9     4     5   ar
    10     5     6   ar
    11     6     1    1
    12     1    16    1
    13    16    17    1
    14    17    18   ar
    15    17    19   ar
    16     1    20    1
    17    20    21    1
    18    21    22    1
    19    22    23    1
    20    23    24    1
    21    24    26    1
    22    26    27    1
    23    27    28    1
    24    28    29   ar
    25    29    30   ar
    26    30    31   ar
    27    31    32   ar
    28    32    33   ar
    29    32    34    1
    30    34    35    1
    31    35    36    1
    32    36    37    1
    33    24    25    1
    34     6     7   ar
    35    13    14   ar
    36    14     9   ar
    37     7     2   ar
    38    25    21    1
    39    33    28   ar
    40    37    31    1
    41    34    38    1
    42    14    15    1
@<TRIPOS>MOLECULE
*****
 38 42 0 0 0
SMALL
GASTEIGER

@<TRIPOS>ATOM
      1 C         143.5941  139.0237  162.7040 C.3     1  UNL1        0.0438
      2 C         143.4299  141.8570  165.4782 C.ar    1  UNL1        0.0165
      3 C         144.4686  142.8123  164.9695 C.ar    1  UNL1        0.0014
      4 C         145.2157  142.5048  163.7057 C.ar    1  UNL1       -0.0003
      5 C         144.9242  141.2419  162.9506 C.ar    1  UNL1       -0.0042
      6 C         143.8856  140.2866  163.4592 C.ar    1  UNL1       -0.0207
      7 C         143.1385  140.5942  164.7230 C.ar    1  UNL1       -0.0028
      8 C         142.2967  142.6681  170.5712 C.3     1  UNL1        0.0716
      9 C         142.1618  142.5374  169.0830 C.ar    1  UNL1        0.1171
     10 N         140.9042  142.7383  168.2906 N.ar    1  UNL1       -0.2355
     11 C         141.2261  142.5078  166.8437 C.ar    1  UNL1        0.0761
     12 C         140.2609  142.6039  165.6996 C.3     1  UNL1        0.0537
     13 C         142.6828  142.1645  166.7419 C.ar    1  UNL1        0.0711
     14 N         143.2611  142.1828  168.1259 N.ar    1  UNL1       -0.3410
     15 H         144.1977  141.9950  168.3642 H       1  UNL1        0.1671
     16 C         144.1056  138.8518  161.3044 C.3     1  UNL1        0.0474
     17 C         143.2818  139.3207  160.1419 C.2     1  UNL1        0.0507
     18 O         143.3924  138.6275  158.8162 O.co2   1  UNL1       -0.5492
     19 O         142.3473  140.4826  160.3051 O.co2   1  UNL1       -0.5492
     20 C         142.7912  137.9328  163.3484 C.3     1  UNL1        0.0768
     21 N         141.2934  138.0125  163.3628 N.3     1  UNL1       -0.2724
     22 C         140.4203  137.9795  164.5822 C.3     1  UNL1        0.0721
     23 C         138.9930  138.0857  164.1333 C.3     1  UNL1        0.0187
     24 C         138.9839  138.1844  162.6366 C.3     1  UNL1        0.0178
     25 C         140.4056  138.1391  162.1604 C.3     1  UNL1        0.0721
     26 C         137.7668  138.3068  161.7685 C.3     1  UNL1        0.0077
     27 C         137.6072  139.4924  160.8637 C.3     1  UNL1        0.0459
     28 C         137.9260  140.8688  161.3676 C.ar    1  UNL1        0.0603
     29 C         137.3415  141.3470  162.6637 C.ar    1  UNL1        0.0145
     30 C         137.6603  142.7233  163.1676 C.ar    1  UNL1       -0.0003
     31 C         138.5635  143.6216  162.3755 C.ar    1  UNL1        0.0092
     32 C         139.1479  143.1434  161.0794 C.ar    1  UNL1        0.1240
     33 N         138.8291  141.7670  160.5755 N.ar    1  UNL1       -0.2356
     34 N         140.0511  144.0416  160.2873 N.pl3   1  UNL1       -0.3184
     35 C         140.3698  145.4180  160.7913 C.3     1  UNL1        0.0885
     36 C         139.7854  145.8962  162.0873 C.3     1  UNL1        0.0260
     37 C         138.8822  144.9980  162.8794 C.3     1  UNL1        0.0309
     38 H         140.4347  143.7278  159.4367 H       1  UNL1        0.1482
@<TRIPOS>UNITY_ATOM_ATTR
18 1
charge -1
@<TRIPOS>BOND
     1     8     9    1
     2     9    10   ar
     3    10    11   ar
     4    11    12    1
     5    11    13   ar
     6    13     2    1
     7     2     3   ar
     8     3     4   ar
     9     4     5   ar
    10     5     6   ar
    11     6     1    1
    12     1    16    1
    13    16    17    1
    14    17    18   ar
    15    17    19   ar
    16     1    20    1
    17    20    21    1
    18    21    22    1
    19    22    23    1
    20    23    24    1
    21    24    26    1
    22    26    27    1
    23    27    28    1
    24    28    29   ar
    25    29    30   ar
    26    30    31   ar
    27    31    32   ar
    28    32    33   ar
    29    32    34    1
    30    34    35    1
    31    35    36    1
    32    36    37    1
    33    24    25    1
    34     6     7   ar
    35    13    14   ar
    36    14     9   ar
    37     7     2   ar
    38    25    21    1
    39    33    28   ar
    40    37    31    1
    41    34    38    1
    42    14    15    1
