@<TRIPOS>MOLECULE
*****
 53 60 0 0 0
SMALL
GASTEIGER

@<TRIPOS>ATOM
      1 C         133.0686  140.6708  155.7402 C.ar    1  UNL1        0.2216
      2 N         133.1967  141.3933  154.4319 N.ar    1  UNL1       -0.2120
      3 C         134.5548  141.7216  153.8863 C.ar    1  UNL1        0.1048
      4 C         135.7848  141.3273  154.6490 C.ar    1  UNL1        0.0551
      5 C         137.1430  141.6556  154.1033 C.ar    1  UNL1        0.0061
      6 C         138.3730  141.2613  154.8659 C.ar    1  UNL1        0.0179
      7 C         138.2449  140.5388  156.1742 C.ar    1  UNL1        0.0829
      8 N         136.8868  140.2105  156.7198 N.ar    1  UNL1       -0.2264
      9 C         135.6567  140.6048  155.9572 C.ar    1  UNL1        0.1666
     10 N         134.2986  140.2766  156.5028 N.ar    1  UNL1       -0.1945
     11 N         128.9941  139.6860  157.3772 N.3     1  UNL1       -0.2686
     12 C         130.2120  139.0202  157.9460 C.3     1  UNL1        0.0939
     13 C         131.5701  139.3485  157.4003 C.3     1  UNL1        0.1109
     14 N         131.7104  140.3425  156.2859 N.pl3   1  UNL1       -0.2753
     15 C         130.4926  141.0084  155.7170 C.3     1  UNL1        0.1109
     16 C         129.1345  140.6801  156.2626 C.3     1  UNL1        0.0939
     17 C         127.6360  139.3578  157.9228 C.3     1  UNL1        0.0897
     18 C         127.5057  138.4784  159.1310 C.3     1  UNL1        0.0897
     19 C         127.6260  140.5648  160.6745 C.3     1  UNL1        0.0897
     20 N         127.4164  139.0901  160.4977 N.3     1  UNL1       -0.2691
     21 C         127.1175  138.2271  161.6876 C.3     1  UNL1        0.0897
     22 C         139.7311  141.5896  154.3203 C.ar    1  UNL1        0.0015
     23 C         140.4250  142.8502  154.7439 C.ar    1  UNL1        0.0000
     24 C         141.7831  143.1785  154.1983 C.ar    1  UNL1        0.0000
     25 C         142.4474  142.2461  153.2291 C.ar    1  UNL1        0.0000
     26 C         141.7536  140.9856  152.8054 C.ar    1  UNL1        0.0000
     27 C         140.3954  140.6573  153.3510 C.ar    1  UNL1        0.0000
     28 C         139.4749  140.1445  156.9368 C.ar    1  UNL1        0.0177
     29 C         140.1664  138.8499  156.6273 C.ar    1  UNL1        0.0012
     30 C         141.3964  138.4556  157.3900 C.ar    1  UNL1       -0.0029
     31 C         141.9349  139.3560  158.4621 C.ar    1  UNL1       -0.0061
     32 C         141.2434  140.6506  158.7715 C.ar    1  UNL1       -0.0029
     33 C         140.0134  141.0449  158.0089 C.ar    1  UNL1        0.0012
     34 C         143.1650  138.9618  159.2247 C.3     1  UNL1        0.0991
     35 N         143.1491  138.9602  160.7247 N.3     1  UNL1       -0.2689
     36 C         144.0969  139.8392  161.4856 C.3     1  UNL1        0.0728
     37 C         144.0810  139.8377  162.9856 C.3     1  UNL1        0.0249
     38 C         143.1174  138.9572  163.7245 C.3     1  UNL1        0.0613
     39 C         142.1696  138.0781  162.9635 C.3     1  UNL1        0.0249
     40 C         142.1855  138.0797  161.4636 C.3     1  UNL1        0.0728
     41 C         143.1015  138.9556  165.2244 C.ar    1  UNL1        0.1396
     42 N         143.8513  138.0081  166.1131 N.ar    1  UNL1       -0.1336
     43 N         143.5462  138.3682  167.5369 N.ar    1  UNL1       -0.1293
     44 C         142.6078  139.5384  167.5281 C.ar    1  UNL1        0.1639
     45 N         142.3329  139.9014  166.0989 N.ar    1  UNL1       -0.3246
     46 H         141.7503  140.6321  165.7892 H       1  UNL1        0.1686
     47 C         142.0433  140.2249  168.7365 C.2     1  UNL1        0.0485
     48 C         140.5966  140.0491  169.0916 C.2     1  UNL1       -0.0121
     49 C         140.0321  140.7357  170.2999 C.3     1  UNL1        0.1133
     50 C         140.9143  141.5980  171.1531 C.2     1  UNL1        0.2500
     51 O         140.3498  142.2846  172.3613 O.2     1  UNL1       -0.2726
     52 N         142.3611  141.7739  170.7979 N.am    1  UNL1       -0.1775
     53 C         142.9255  141.0873  169.5897 C.2     1  UNL1        0.0913
@<TRIPOS>BOND
     1    19    20    1
     2    20    21    1
     3    20    18    1
     4    18    17    1
     5    17    11    1
     6    11    12    1
     7    12    13    1
     8    13    14    1
     9    14     1    1
    10     1     2   ar
    11     2     3   ar
    12     3     4   ar
    13     4     5   ar
    14     5     6   ar
    15     6    22    1
    16    22    23   ar
    17    23    24   ar
    18    24    25   ar
    19    25    26   ar
    20    26    27   ar
    21     6     7   ar
    22     7    28    1
    23    28    29   ar
    24    29    30   ar
    25    30    31   ar
    26    31    34    1
    27    34    35    1
    28    35    36    1
    29    36    37    1
    30    37    38    1
    31    38    41    1
    32    41    42   ar
    33    42    43   ar
    34    43    44   ar
    35    44    47    1
    36    47    48    2
    37    48    49    1
    38    49    50    1
    39    50    51    2
    40    50    52    1
    41    52    53    2
    42    44    45   ar
    43    38    39    1
    44    39    40    1
    45    31    32   ar
    46    32    33   ar
    47     7     8   ar
    48     8     9   ar
    49     9    10   ar
    50    14    15    1
    51    15    16    1
    52    16    11    1
    53    10     1   ar
    54     9     4   ar
    55    27    22   ar
    56    33    28   ar
    57    40    35    1
    58    45    41   ar
    59    53    47    1
    60    45    46    1
@<TRIPOS>MOLECULE
*****
 53 60 0 0 0
SMALL
GASTEIGER

@<TRIPOS>ATOM
      1 C         143.2133  141.7709  163.2190 C.ar    1  UNL1        0.2216
      2 N         144.4830  142.4228  162.7578 N.ar    1  UNL1       -0.2120
      3 C         144.6152  142.8858  161.3372 C.ar    1  UNL1        0.1048
      4 C         143.4777  142.6969  160.3778 C.ar    1  UNL1        0.0551
      5 C         143.6100  143.1600  158.9572 C.ar    1  UNL1        0.0061
      6 C         142.4725  142.9711  157.9978 C.ar    1  UNL1        0.0179
      7 C         141.2027  142.3193  158.4591 C.ar    1  UNL1        0.0829
      8 N         141.0704  141.8563  159.8797 N.ar    1  UNL1       -0.2264
      9 C         142.2080  142.0451  160.8390 C.ar    1  UNL1        0.1666
     10 N         142.0757  141.5821  162.2596 N.ar    1  UNL1       -0.1945
     11 N         142.8164  140.3819  167.4809 N.3     1  UNL1       -0.2686
     12 C         142.7668  139.3864  166.3599 C.3     1  UNL1        0.0939
     13 C         142.8991  139.8495  164.9393 C.3     1  UNL1        0.1109
     14 N         143.0810  141.3079  164.6396 N.pl3   1  UNL1       -0.2753
     15 C         143.1306  142.3034  165.7606 C.3     1  UNL1        0.1109
     16 C         142.9983  141.8404  167.1812 C.3     1  UNL1        0.0939
     17 C         142.6841  139.9190  168.9015 C.3     1  UNL1        0.0897
     18 C         142.4318  140.9148  169.9944 C.3     1  UNL1        0.0897
     19 C         140.5797  142.7329  170.1148 C.3     1  UNL1        0.0897
     20 N         141.0269  141.3178  170.3322 N.3     1  UNL1       -0.2691
     21 C         140.0694  140.3055  170.8875 C.3     1  UNL1        0.0897
     22 C         142.6047  143.4341  156.5772 C.ar    1  UNL1        0.0015
     23 C         142.0789  144.7802  156.1750 C.ar    1  UNL1        0.0000
     24 C         142.2112  145.2432  154.7545 C.ar    1  UNL1        0.0000
     25 C         142.8692  144.3602  153.7360 C.ar    1  UNL1        0.0000
     26 C         143.3949  143.0141  154.1381 C.ar    1  UNL1        0.0000
     27 C         143.2627  142.5511  155.5587 C.ar    1  UNL1        0.0000
     28 C         140.0651  142.1304  157.4997 C.ar    1  UNL1        0.0177
     29 C         138.9564  143.1392  157.4431 C.ar    1  UNL1        0.0012
     30 C         137.8189  142.9504  156.4838 C.ar    1  UNL1       -0.0029
     31 C         137.7901  141.7527  155.5810 C.ar    1  UNL1       -0.0061
     32 C         138.8988  140.7440  155.6377 C.ar    1  UNL1       -0.0029
     33 C         140.0363  140.9329  156.5970 C.ar    1  UNL1        0.0012
     34 C         136.6525  141.5639  154.6217 C.3     1  UNL1        0.0991
     35 N         135.2902  141.2030  155.1354 N.3     1  UNL1       -0.2689
     36 C         134.0666  141.6276  154.3788 C.3     1  UNL1        0.0728
     37 C         132.7043  141.2666  154.8926 C.3     1  UNL1        0.0249
     38 C         132.5656  140.4811  156.1629 C.3     1  UNL1        0.0613
     39 C         133.7893  140.0565  156.9195 C.3     1  UNL1        0.0249
     40 C         135.1516  140.4174  156.4057 C.3     1  UNL1        0.0728
     41 C         131.2034  140.1202  156.6766 C.ar    1  UNL1        0.1396
     42 N         129.8986  140.4132  155.9971 N.ar    1  UNL1       -0.1336
     43 N         128.7955  139.8770  156.8606 N.ar    1  UNL1       -0.1293
     44 C         129.4186  139.2524  158.0738 C.ar    1  UNL1        0.1639
     45 N         130.9067  139.4028  157.9601 N.ar    1  UNL1       -0.3246
     46 H         131.5719  139.0861  158.6132 H       1  UNL1        0.1686
     47 C         128.6827  138.5933  159.2026 C.2     1  UNL1        0.0485
     48 C         128.4922  137.1055  159.2062 C.2     1  UNL1       -0.0121
     49 C         127.7563  136.4464  160.3350 C.3     1  UNL1        0.1133
     50 C         127.2110  137.2751  161.4601 C.2     1  UNL1        0.2500
     51 O         126.4751  136.6160  162.5888 O.2     1  UNL1       -0.2726
     52 N         127.4016  138.7631  161.4564 N.am    1  UNL1       -0.1775
     53 C         128.1374  139.4220  160.3277 C.2     1  UNL1        0.0913
@<TRIPOS>BOND
     1    19    20    1
     2    20    21    1
     3    20    18    1
     4    18    17    1
     5    17    11    1
     6    11    12    1
     7    12    13    1
     8    13    14    1
     9    14     1    1
    10     1     2   ar
    11     2     3   ar
    12     3     4   ar
    13     4     5   ar
    14     5     6   ar
    15     6    22    1
    16    22    23   ar
    17    23    24   ar
    18    24    25   ar
    19    25    26   ar
    20    26    27   ar
    21     6     7   ar
    22     7    28    1
    23    28    29   ar
    24    29    30   ar
    25    30    31   ar
    26    31    34    1
    27    34    35    1
    28    35    36    1
    29    36    37    1
    30    37    38    1
    31    38    41    1
    32    41    42   ar
    33    42    43   ar
    34    43    44   ar
    35    44    47    1
    36    47    48    2
    37    48    49    1
    38    49    50    1
    39    50    51    2
    40    50    52    1
    41    52    53    2
    42    44    45   ar
    43    38    39    1
    44    39    40    1
    45    31    32   ar
    46    32    33   ar
    47     7     8   ar
    48     8     9   ar
    49     9    10   ar
    50    14    15    1
    51    15    16    1
    52    16    11    1
    53    10     1   ar
    54     9     4   ar
    55    27    22   ar
    56    33    28   ar
    57    40    35    1
    58    45    41   ar
    59    53    47    1
    60    45    46    1
@<TRIPOS>MOLECULE
*****
 53 60 0 0 0
SMALL
GASTEIGER

@<TRIPOS>ATOM
      1 C         143.5186  131.0201  155.9394 C.ar    1  UNL1        0.2216
      2 N         143.1610  130.8241  154.4959 N.ar    1  UNL1       -0.2120
      3 C         142.5177  131.9382  153.7247 C.ar    1  UNL1        0.1048
      4 C         142.2320  133.2483  154.3969 C.ar    1  UNL1        0.0551
      5 C         141.5887  134.3625  153.6255 C.ar    1  UNL1        0.0061
      6 C         141.3031  135.6726  154.2977 C.ar    1  UNL1        0.0179
      7 C         141.6607  135.8687  155.7412 C.ar    1  UNL1        0.0829
      8 N         142.3040  134.7546  156.5125 N.ar    1  UNL1       -0.2264
      9 C         142.5897  133.4444  155.8403 C.ar    1  UNL1        0.1666
     10 N         143.2330  132.3303  156.6116 N.ar    1  UNL1       -0.1945
     11 N         145.4486  127.6778  158.2534 N.3     1  UNL1       -0.2686
     12 C         145.1732  127.5140  156.7881 C.3     1  UNL1        0.0939
     13 C         144.5299  128.6282  156.0167 C.3     1  UNL1        0.1109
     14 N         144.1620  129.9060  156.7107 N.pl3   1  UNL1       -0.2753
     15 C         144.4373  130.0698  158.1761 C.3     1  UNL1        0.1109
     16 C         145.0806  128.9557  158.9475 C.3     1  UNL1        0.0939
     17 C         146.0919  126.5638  159.0248 C.3     1  UNL1        0.0897
     18 C         147.2085  126.8610  159.9813 C.3     1  UNL1        0.0897
     19 C         145.5213  126.8623  161.9570 C.3     1  UNL1        0.0897
     20 N         146.9140  127.0644  161.4380 N.3     1  UNL1       -0.2691
     21 C         148.0124  127.4699  162.3757 C.3     1  UNL1        0.0897
     22 C         140.6598  136.7867  153.5264 C.ar    1  UNL1        0.0015
     23 C         141.4910  137.9319  153.0286 C.ar    1  UNL1        0.0000
     24 C         140.8477  139.0460  152.2573 C.ar    1  UNL1        0.0000
     25 C         139.3732  139.0150  151.9838 C.ar    1  UNL1        0.0000
     26 C         138.5419  137.8700  152.4816 C.ar    1  UNL1        0.0000
     27 C         139.1852  136.7558  153.2529 C.ar    1  UNL1        0.0000
     28 C         141.3751  137.1789  156.4134 C.ar    1  UNL1        0.0177
     29 C         139.9798  137.5059  156.8567 C.ar    1  UNL1        0.0012
     30 C         139.6942  138.8161  157.5289 C.ar    1  UNL1       -0.0029
     31 C         140.8038  139.7992  157.7578 C.ar    1  UNL1       -0.0061
     32 C         142.1989  139.4722  157.3144 C.ar    1  UNL1       -0.0029
     33 C         142.4846  138.1620  156.6423 C.ar    1  UNL1        0.0012
     34 C         140.5181  141.1094  158.4300 C.3     1  UNL1        0.0991
     35 N         140.9610  141.3388  159.8447 N.3     1  UNL1       -0.2689
     36 C         141.2421  142.7313  160.3261 C.3     1  UNL1        0.0728
     37 C         141.6850  142.9608  161.7408 C.3     1  UNL1        0.0249
     38 C         141.8467  141.7976  162.6740 C.3     1  UNL1        0.0613
     39 C         141.5656  140.4050  162.1925 C.3     1  UNL1        0.0249
     40 C         141.1227  140.1757  160.7779 C.3     1  UNL1        0.0728
     41 C         142.2896  142.0269  164.0886 C.ar    1  UNL1        0.1396
     42 N         143.6579  142.4597  164.5250 N.ar    1  UNL1       -0.1336
     43 N         143.6559  142.5640  166.0213 N.ar    1  UNL1       -0.1293
     44 C         142.2862  142.1958  166.5098 C.ar    1  UNL1        0.1639
     45 N         141.4419  141.8638  165.3153 N.ar    1  UNL1       -0.3246
     46 H         140.4971  141.5875  165.3332 H       1  UNL1        0.1686
     47 C         141.8395  142.1649  167.9414 C.2     1  UNL1        0.0485
     48 C         140.6783  143.0055  168.3830 C.2     1  UNL1       -0.0121
     49 C         140.2315  142.9746  169.8146 C.3     1  UNL1        0.1133
     50 C         140.9459  142.1031  170.8046 C.2     1  UNL1        0.2500
     51 O         140.4992  142.0722  172.2361 O.2     1  UNL1       -0.2726
     52 N         142.1072  141.2624  170.3629 N.am    1  UNL1       -0.1775
     53 C         142.5538  141.2933  168.9314 C.2     1  UNL1        0.0913
@<TRIPOS>BOND
     1    19    20    1
     2    20    21    1
     3    20    18    1
     4    18    17    1
     5    17    11    1
     6    11    12    1
     7    12    13    1
     8    13    14    1
     9    14     1    1
    10     1     2   ar
    11     2     3   ar
    12     3     4   ar
    13     4     5   ar
    14     5     6   ar
    15     6    22    1
    16    22    23   ar
    17    23    24   ar
    18    24    25   ar
    19    25    26   ar
    20    26    27   ar
    21     6     7   ar
    22     7    28    1
    23    28    29   ar
    24    29    30   ar
    25    30    31   ar
    26    31    34    1
    27    34    35    1
    28    35    36    1
    29    36    37    1
    30    37    38    1
    31    38    41    1
    32    41    42   ar
    33    42    43   ar
    34    43    44   ar
    35    44    47    1
    36    47    48    2
    37    48    49    1
    38    49    50    1
    39    50    51    2
    40    50    52    1
    41    52    53    2
    42    44    45   ar
    43    38    39    1
    44    39    40    1
    45    31    32   ar
    46    32    33   ar
    47     7     8   ar
    48     8     9   ar
    49     9    10   ar
    50    14    15    1
    51    15    16    1
    52    16    11    1
    53    10     1   ar
    54     9     4   ar
    55    27    22   ar
    56    33    28   ar
    57    40    35    1
    58    45    41   ar
    59    53    47    1
    60    45    46    1
@<TRIPOS>MOLECULE
*****
 53 60 0 0 0
SMALL
GASTEIGER

@<TRIPOS>ATOM
      1 C         140.1742  148.9171  154.0144 C.ar    1  UNL1        0.2216
      2 N         140.9815  148.4621  152.8349 N.ar    1  UNL1       -0.2120
      3 C         141.2584  147.0016  152.6342 C.ar    1  UNL1        0.1048
      4 C         140.7281  145.9962  153.6129 C.ar    1  UNL1        0.0551
      5 C         141.0050  144.5357  153.4121 C.ar    1  UNL1        0.0061
      6 C         140.4746  143.5303  154.3908 C.ar    1  UNL1        0.0179
      7 C         139.6673  143.9854  155.5704 C.ar    1  UNL1        0.0829
      8 N         139.3904  145.4459  155.7711 N.ar    1  UNL1       -0.2264
      9 C         139.9208  146.4513  154.7924 C.ar    1  UNL1        0.1666
     10 N         139.6439  147.9117  154.9931 N.ar    1  UNL1       -0.1945
     11 N         139.3434  153.2986  154.6168 N.3     1  UNL1       -0.2686
     12 C         138.5395  152.2737  155.3605 C.3     1  UNL1        0.0939
     13 C         138.8165  150.8132  155.1597 C.3     1  UNL1        0.1109
     14 N         139.8973  150.3777  154.2152 N.pl3   1  UNL1       -0.2753
     15 C         140.7011  151.4026  153.4714 C.3     1  UNL1        0.1109
     16 C         140.4242  152.8631  153.6722 C.3     1  UNL1        0.0939
     17 C         139.0665  154.7591  154.8175 C.3     1  UNL1        0.0897
     18 C         137.6614  155.2314  155.0470 C.3     1  UNL1        0.0897
     19 C         138.1989  155.6180  157.5593 C.3     1  UNL1        0.0897
     20 N         137.2411  155.7016  156.4080 N.3     1  UNL1       -0.2691
     21 C         135.8629  156.2555  156.6176 C.3     1  UNL1        0.0897
     22 C         140.7516  142.0699  154.1901 C.ar    1  UNL1        0.0015
     23 C         142.0357  141.4747  154.6870 C.ar    1  UNL1        0.0000
     24 C         142.3126  140.0143  154.4863 C.ar    1  UNL1        0.0000
     25 C         141.3055  139.1489  153.7886 C.ar    1  UNL1        0.0000
     26 C         140.0214  139.7439  153.2917 C.ar    1  UNL1        0.0000
     27 C         139.7444  141.2045  153.4925 C.ar    1  UNL1        0.0000
     28 C         139.1370  142.9800  156.5491 C.ar    1  UNL1        0.0177
     29 C         137.7399  142.4542  156.4013 C.ar    1  UNL1        0.0012
     30 C         137.2095  141.4488  157.3800 C.ar    1  UNL1       -0.0029
     31 C         138.0762  140.9692  158.5065 C.ar    1  UNL1       -0.0061
     32 C         139.4733  141.4950  158.6542 C.ar    1  UNL1       -0.0029
     33 C         140.0036  142.5004  157.6755 C.ar    1  UNL1        0.0012
     34 C         137.5459  139.9638  159.4852 C.3     1  UNL1        0.0991
     35 N         137.9313  140.0503  160.9323 N.3     1  UNL1       -0.2689
     36 C         137.9250  141.3769  161.6322 C.3     1  UNL1        0.0728
     37 C         138.3105  141.4634  163.0793 C.3     1  UNL1        0.0249
     38 C         138.7022  140.2231  163.8265 C.3     1  UNL1        0.0613
     39 C         138.7085  138.8963  163.1265 C.3     1  UNL1        0.0249
     40 C         138.3230  138.8100  161.6795 C.3     1  UNL1        0.0728
     41 C         139.0876  140.3094  165.2735 C.ar    1  UNL1        0.1396
     42 N         138.5733  139.4329  166.3768 N.ar    1  UNL1       -0.1336
     43 N         139.2228  139.8692  167.6565 N.ar    1  UNL1       -0.1293
     44 C         140.1386  141.0155  167.3441 C.ar    1  UNL1        0.1639
     45 N         140.0550  141.2875  165.8713 N.ar    1  UNL1       -0.3246
     46 H         140.5485  141.9854  165.3829 H       1  UNL1        0.1686
     47 C         140.9888  141.7591  168.3312 C.2     1  UNL1        0.0485
     48 C         142.4841  141.6861  168.2380 C.2     1  UNL1       -0.0121
     49 C         143.3342  142.4298  169.2251 C.3     1  UNL1        0.1133
     50 C         142.6890  143.2463  170.3054 C.2     1  UNL1        0.2500
     51 O         143.5391  143.9899  171.2924 O.2     1  UNL1       -0.2726
     52 N         141.1936  143.3192  170.3985 N.am    1  UNL1       -0.1775
     53 C         140.3436  142.5757  169.4114 C.2     1  UNL1        0.0913
@<TRIPOS>BOND
     1    19    20    1
     2    20    21    1
     3    20    18    1
     4    18    17    1
     5    17    11    1
     6    11    12    1
     7    12    13    1
     8    13    14    1
     9    14     1    1
    10     1     2   ar
    11     2     3   ar
    12     3     4   ar
    13     4     5   ar
    14     5     6   ar
    15     6    22    1
    16    22    23   ar
    17    23    24   ar
    18    24    25   ar
    19    25    26   ar
    20    26    27   ar
    21     6     7   ar
    22     7    28    1
    23    28    29   ar
    24    29    30   ar
    25    30    31   ar
    26    31    34    1
    27    34    35    1
    28    35    36    1
    29    36    37    1
    30    37    38    1
    31    38    41    1
    32    41    42   ar
    33    42    43   ar
    34    43    44   ar
    35    44    47    1
    36    47    48    2
    37    48    49    1
    38    49    50    1
    39    50    51    2
    40    50    52    1
    41    52    53    2
    42    44    45   ar
    43    38    39    1
    44    39    40    1
    45    31    32   ar
    46    32    33   ar
    47     7     8   ar
    48     8     9   ar
    49     9    10   ar
    50    14    15    1
    51    15    16    1
    52    16    11    1
    53    10     1   ar
    54     9     4   ar
    55    27    22   ar
    56    33    28   ar
    57    40    35    1
    58    45    41   ar
    59    53    47    1
    60    45    46    1
@<TRIPOS>MOLECULE
*****
 53 60 0 0 0
SMALL
GASTEIGER

@<TRIPOS>ATOM
      1 C         140.9834  142.9146  163.4757 C.ar    1  UNL1        0.2216
      2 N         140.3157  144.1859  163.0422 N.ar    1  UNL1       -0.2120
      3 C         139.8464  144.3415  161.6261 C.ar    1  UNL1        0.1048
      4 C         140.0449  143.2257  160.6433 C.ar    1  UNL1        0.0551
      5 C         139.5756  143.3814  159.2271 C.ar    1  UNL1        0.0061
      6 C         139.7741  142.2656  158.2444 C.ar    1  UNL1        0.0179
      7 C         140.4419  140.9943  158.6779 C.ar    1  UNL1        0.0829
      8 N         140.9112  140.8387  160.0940 N.ar    1  UNL1       -0.2264
      9 C         140.7127  141.9545  161.0768 C.ar    1  UNL1        0.1666
     10 N         141.1819  141.7989  162.4929 N.ar    1  UNL1       -0.1945
     11 N         142.3913  142.4478  167.7243 N.3     1  UNL1       -0.2686
     12 C         140.9261  142.5745  167.4293 C.3     1  UNL1        0.0939
     13 C         140.4568  142.7301  166.0131 C.3     1  UNL1        0.1109
     14 N         141.4527  142.7590  164.8919 N.pl3   1  UNL1       -0.2753
     15 C         142.9180  142.6323  165.1868 C.3     1  UNL1        0.1109
     16 C         143.3873  142.4768  166.6029 C.3     1  UNL1        0.0939
     17 C         142.8606  142.2922  169.1404 C.3     1  UNL1        0.0897
     18 C         141.8993  141.8541  170.2052 C.3     1  UNL1        0.0897
     19 C         140.1301  140.0700  170.8663 C.3     1  UNL1        0.0897
     20 N         141.4658  140.4201  170.2804 N.3     1  UNL1       -0.2691
     21 C         142.3681  139.3361  169.7696 C.3     1  UNL1        0.0897
     22 C         139.3049  142.4212  156.8282 C.ar    1  UNL1        0.0015
     23 C         140.2063  143.0438  155.8035 C.ar    1  UNL1        0.0000
     24 C         139.7370  143.1994  154.3873 C.ar    1  UNL1        0.0000
     25 C         138.3664  142.7323  153.9958 C.ar    1  UNL1        0.0000
     26 C         137.4650  142.1097  155.0204 C.ar    1  UNL1        0.0000
     27 C         137.9343  141.9541  156.4367 C.ar    1  UNL1        0.0000
     28 C         140.6404  139.8786  157.6952 C.ar    1  UNL1        0.0177
     29 C         139.6114  138.7939  157.5740 C.ar    1  UNL1        0.0012
     30 C         139.8099  137.6781  156.5913 C.ar    1  UNL1       -0.0029
     31 C         141.0374  137.6471  155.7297 C.ar    1  UNL1       -0.0061
     32 C         142.0663  138.7318  155.8509 C.ar    1  UNL1       -0.0029
     33 C         141.8679  139.8475  156.8336 C.ar    1  UNL1        0.0012
     34 C         141.2359  136.5314  154.7470 C.3     1  UNL1        0.0991
     35 N         141.6543  135.1736  155.2282 N.3     1  UNL1       -0.2689
     36 C         141.1849  133.9448  154.5074 C.3     1  UNL1        0.0728
     37 C         141.6033  132.5871  154.9886 C.3     1  UNL1        0.0249
     38 C         142.4911  132.4582  156.1908 C.3     1  UNL1        0.0613
     39 C         142.9605  133.6871  156.9116 C.3     1  UNL1        0.0249
     40 C         142.5421  135.0447  156.4304 C.3     1  UNL1        0.0728
     41 C         142.9095  131.1005  156.6720 C.ar    1  UNL1        0.1396
     42 N         142.6695  129.8009  155.9625 N.ar    1  UNL1       -0.1336
     43 N         143.2530  128.7013  156.7993 N.ar    1  UNL1       -0.1293
     44 C         143.8537  129.3213  158.0260 C.ar    1  UNL1        0.1639
     45 N         143.6414  130.8041  157.9473 N.ar    1  UNL1       -0.3246
     46 H         143.9315  131.4665  158.6154 H       1  UNL1        0.1686
     47 C         144.5453  128.5873  159.1364 C.2     1  UNL1        0.0485
     48 C         146.0410  128.6255  159.2432 C.2     1  UNL1       -0.0121
     49 C         146.7326  127.8915  160.3536 C.3     1  UNL1        0.1133
     50 C         145.9285  127.1194  161.3572 C.2     1  UNL1        0.2500
     51 O         146.6201  126.3855  162.4676 O.2     1  UNL1       -0.2726
     52 N         144.4327  127.0813  161.2504 N.am    1  UNL1       -0.1775
     53 C         143.7412  127.8152  160.1400 C.2     1  UNL1        0.0913
@<TRIPOS>BOND
     1    19    20    1
     2    20    21    1
     3    20    18    1
     4    18    17    1
     5    17    11    1
     6    11    12    1
     7    12    13    1
     8    13    14    1
     9    14     1    1
    10     1     2   ar
    11     2     3   ar
    12     3     4   ar
    13     4     5   ar
    14     5     6   ar
    15     6    22    1
    16    22    23   ar
    17    23    24   ar
    18    24    25   ar
    19    25    26   ar
    20    26    27   ar
    21     6     7   ar
    22     7    28    1
    23    28    29   ar
    24    29    30   ar
    25    30    31   ar
    26    31    34    1
    27    34    35    1
    28    35    36    1
    29    36    37    1
    30    37    38    1
    31    38    41    1
    32    41    42   ar
    33    42    43   ar
    34    43    44   ar
    35    44    47    1
    36    47    48    2
    37    48    49    1
    38    49    50    1
    39    50    51    2
    40    50    52    1
    41    52    53    2
    42    44    45   ar
    43    38    39    1
    44    39    40    1
    45    31    32   ar
    46    32    33   ar
    47     7     8   ar
    48     8     9   ar
    49     9    10   ar
    50    14    15    1
    51    15    16    1
    52    16    11    1
    53    10     1   ar
    54     9     4   ar
    55    27    22   ar
    56    33    28   ar
    57    40    35    1
    58    45    41   ar
    59    53    47    1
    60    45    46    1
@<TRIPOS>MOLECULE
*****
 53 60 0 0 0
SMALL
GASTEIGER

@<TRIPOS>ATOM
      1 C         131.1706  139.7171  156.6916 C.ar    1  UNL1        0.2216
      2 N         130.8957  140.5864  155.5004 N.ar    1  UNL1       -0.2120
      3 C         132.0164  141.3393  154.8469 C.ar    1  UNL1        0.1048
      4 C         133.4119  141.2230  155.3846 C.ar    1  UNL1        0.0551
      5 C         134.5326  141.9760  154.7310 C.ar    1  UNL1        0.0061
      6 C         135.9281  141.8597  155.2686 C.ar    1  UNL1        0.0179
      7 C         136.2029  140.9904  156.4599 C.ar    1  UNL1        0.0829
      8 N         135.0822  140.2375  157.1134 N.ar    1  UNL1       -0.2264
      9 C         133.6867  140.3538  156.5757 C.ar    1  UNL1        0.1666
     10 N         132.5660  139.6009  157.2292 N.ar    1  UNL1       -0.1945
     11 N         127.8085  137.4582  158.6523 N.3     1  UNL1       -0.2686
     12 C         128.4057  136.9526  157.3726 C.3     1  UNL1        0.0939
     13 C         129.5264  137.7056  156.7190 C.3     1  UNL1        0.1109
     14 N         130.0498  138.9642  157.3451 N.pl3   1  UNL1       -0.2753
     15 C         129.4526  139.4698  158.6248 C.3     1  UNL1        0.1109
     16 C         128.3319  138.7169  159.2784 C.3     1  UNL1        0.0939
     17 C         126.6878  136.7053  159.3059 C.3     1  UNL1        0.0897
     18 C         126.9903  135.6309  160.3078 C.3     1  UNL1        0.0897
     19 C         126.8651  134.7939  162.7643 C.3     1  UNL1        0.0897
     20 N         126.8812  135.9217  161.7754 N.3     1  UNL1       -0.2691
     21 C         126.7881  137.3402  162.2540 C.3     1  UNL1        0.0897
     22 C         137.0488  142.6126  154.6151 C.ar    1  UNL1        0.0015
     23 C         137.3832  144.0028  155.0687 C.ar    1  UNL1        0.0000
     24 C         138.5039  144.7557  154.4152 C.ar    1  UNL1        0.0000
     25 C         139.2902  144.1186  153.3081 C.ar    1  UNL1        0.0000
     26 C         138.9559  142.7285  152.8545 C.ar    1  UNL1        0.0000
     27 C         137.8352  141.9755  153.5080 C.ar    1  UNL1        0.0000
     28 C         137.5984  140.8741  156.9975 C.ar    1  UNL1        0.0177
     29 C         138.5173  139.8099  156.4748 C.ar    1  UNL1        0.0012
     30 C         139.9128  139.6936  157.0124 C.ar    1  UNL1       -0.0029
     31 C         140.3894  140.6416  158.0728 C.ar    1  UNL1       -0.0061
     32 C         139.4705  141.7057  158.5955 C.ar    1  UNL1       -0.0029
     33 C         138.0750  141.8220  158.0578 C.ar    1  UNL1        0.0012
     34 C         141.7849  140.5253  158.6105 C.3     1  UNL1        0.0991
     35 N         142.0704  140.8824  160.0391 N.3     1  UNL1       -0.2689
     36 C         142.6587  142.2208  160.3744 C.3     1  UNL1        0.0728
     37 C         142.9442  142.5780  161.8031 C.3     1  UNL1        0.0249
     38 C         142.6414  141.5967  162.8964 C.3     1  UNL1        0.0613
     39 C         142.0530  140.2582  162.5610 C.3     1  UNL1        0.0249
     40 C         141.7675  139.9011  161.1324 C.3     1  UNL1        0.0728
     41 C         142.9268  141.9538  164.3250 C.ar    1  UNL1        0.1396
     42 N         144.1837  142.5898  164.8406 N.ar    1  UNL1       -0.1336
     43 N         144.0392  142.7667  166.3231 N.ar    1  UNL1       -0.1293
     44 C         142.6930  142.2399  166.7237 C.ar    1  UNL1        0.1639
     45 N         142.0056  141.7375  165.4888 N.ar    1  UNL1       -0.3246
     46 H         141.1074  141.3363  165.4491 H       1  UNL1        0.1686
     47 C         142.1327  142.2192  168.1150 C.2     1  UNL1        0.0485
     48 C         140.6635  142.0057  168.3288 C.2     1  UNL1       -0.0121
     49 C         140.1032  141.9850  169.7200 C.3     1  UNL1        0.1133
     50 C         141.0121  142.1778  170.8976 C.2     1  UNL1        0.2500
     51 O         140.4518  142.1570  172.2888 O.2     1  UNL1       -0.2726
     52 N         142.4815  142.3912  170.6838 N.am    1  UNL1       -0.1775
     53 C         143.0417  142.4119  169.2926 C.2     1  UNL1        0.0913
@<TRIPOS>BOND
     1    19    20    1
     2    20    21    1
     3    20    18    1
     4    18    17    1
     5    17    11    1
     6    11    12    1
     7    12    13    1
     8    13    14    1
     9    14     1    1
    10     1     2   ar
    11     2     3   ar
    12     3     4   ar
    13     4     5   ar
    14     5     6   ar
    15     6    22    1
    16    22    23   ar
    17    23    24   ar
    18    24    25   ar
    19    25    26   ar
    20    26    27   ar
    21     6     7   ar
    22     7    28    1
    23    28    29   ar
    24    29    30   ar
    25    30    31   ar
    26    31    34    1
    27    34    35    1
    28    35    36    1
    29    36    37    1
    30    37    38    1
    31    38    41    1
    32    41    42   ar
    33    42    43   ar
    34    43    44   ar
    35    44    47    1
    36    47    48    2
    37    48    49    1
    38    49    50    1
    39    50    51    2
    40    50    52    1
    41    52    53    2
    42    44    45   ar
    43    38    39    1
    44    39    40    1
    45    31    32   ar
    46    32    33   ar
    47     7     8   ar
    48     8     9   ar
    49     9    10   ar
    50    14    15    1
    51    15    16    1
    52    16    11    1
    53    10     1   ar
    54     9     4   ar
    55    27    22   ar
    56    33    28   ar
    57    40    35    1
    58    45    41   ar
    59    53    47    1
    60    45    46    1
@<TRIPOS>MOLECULE
*****
 53 60 0 0 0
SMALL
GASTEIGER

@<TRIPOS>ATOM
      1 C         134.4215  141.3828  154.5524 C.ar    1  UNL1        0.2216
      2 N         134.9442  142.0824  153.3329 N.ar    1  UNL1       -0.2120
      3 C         136.4212  142.1437  153.0787 C.ar    1  UNL1        0.1048
      4 C         137.3755  141.5055  154.0441 C.ar    1  UNL1        0.0551
      5 C         138.8526  141.5669  153.7898 C.ar    1  UNL1        0.0061
      6 C         139.8069  140.9287  154.7552 C.ar    1  UNL1        0.0179
      7 C         139.2842  140.2291  155.9748 C.ar    1  UNL1        0.0829
      8 N         137.8072  140.1677  156.2290 N.ar    1  UNL1       -0.2264
      9 C         136.8528  140.8059  155.2636 C.ar    1  UNL1        0.1666
     10 N         135.3758  140.7445  155.5178 N.ar    1  UNL1       -0.1945
     11 N         129.9904  141.1986  155.3150 N.3     1  UNL1       -0.2686
     12 C         130.9435  140.5414  156.2688 C.3     1  UNL1        0.0939
     13 C         132.4206  140.6028  156.0146 C.3     1  UNL1        0.1109
     14 N         132.9444  141.3213  154.8066 N.pl3   1  UNL1       -0.2753
     15 C         131.9913  141.9785  153.8529 C.3     1  UNL1        0.1109
     16 C         130.5143  141.9172  154.1071 C.3     1  UNL1        0.0939
     17 C         128.5134  141.1372  155.5692 C.3     1  UNL1        0.0897
     18 C         127.9528  140.0896  156.4848 C.3     1  UNL1        0.0897
     19 C         127.3649  138.2377  154.7600 C.3     1  UNL1        0.0897
     20 N         127.9659  138.6476  156.0717 N.3     1  UNL1       -0.2691
     21 C         128.5801  137.6156  156.9704 C.3     1  UNL1        0.0897
     22 C         141.2839  140.9901  154.5010 C.ar    1  UNL1        0.0015
     23 C         142.1112  142.0649  155.1417 C.ar    1  UNL1        0.0000
     24 C         143.5882  142.1263  154.8875 C.ar    1  UNL1        0.0000
     25 C         144.2380  141.1129  153.9927 C.ar    1  UNL1        0.0000
     26 C         143.4108  140.0381  153.3520 C.ar    1  UNL1        0.0000
     27 C         141.9337  139.9767  153.6062 C.ar    1  UNL1        0.0000
     28 C         140.2385  139.5908  156.9402 C.ar    1  UNL1        0.0177
     29 C         140.8015  138.2311  156.6500 C.ar    1  UNL1        0.0012
     30 C         141.7558  137.5928  157.6153 C.ar    1  UNL1       -0.0029
     31 C         142.1472  138.3144  158.8709 C.ar    1  UNL1       -0.0061
     32 C         141.5842  139.6741  159.1610 C.ar    1  UNL1       -0.0029
     33 C         140.6298  140.3123  158.1956 C.ar    1  UNL1        0.0012
     34 C         143.1015  137.6761  159.8362 C.3     1  UNL1        0.0991
     35 N         143.0134  137.9948  161.2994 N.3     1  UNL1       -0.2689
     36 C         141.8171  137.5574  162.0915 C.3     1  UNL1        0.0728
     37 C         141.7289  137.8760  163.5547 C.3     1  UNL1        0.0249
     38 C         142.8371  138.6321  164.2256 C.3     1  UNL1        0.0613
     39 C         144.0335  139.0695  163.4335 C.3     1  UNL1        0.0249
     40 C         144.1216  138.7509  161.9704 C.3     1  UNL1        0.0728
     41 C         142.7491  138.9508  165.6887 C.ar    1  UNL1        0.1396
     42 N         143.5778  138.3347  166.7767 N.ar    1  UNL1       -0.1336
     43 N         143.1577  138.9446  168.0811 N.ar    1  UNL1       -0.1293
     44 C         142.0693  139.9377  167.7993 C.ar    1  UNL1        0.1639
     45 N         141.8168  139.9414  166.3207 N.ar    1  UNL1       -0.3246
     46 H         141.1553  140.4966  165.8480 H       1  UNL1        0.1686
     47 C         141.3583  140.7792  168.8173 C.2     1  UNL1        0.0485
     48 C         139.9210  140.5037  169.1462 C.2     1  UNL1       -0.0121
     49 C         139.2099  141.3452  170.1642 C.3     1  UNL1        0.1133
     50 C         139.9363  142.4621  170.8534 C.2     1  UNL1        0.2500
     51 O         139.2253  143.3036  171.8714 O.2     1  UNL1       -0.2726
     52 N         141.3737  142.7375  170.5245 N.am    1  UNL1       -0.1775
     53 C         142.0846  141.8961  169.5065 C.2     1  UNL1        0.0913
@<TRIPOS>BOND
     1    19    20    1
     2    20    21    1
     3    20    18    1
     4    18    17    1
     5    17    11    1
     6    11    12    1
     7    12    13    1
     8    13    14    1
     9    14     1    1
    10     1     2   ar
    11     2     3   ar
    12     3     4   ar
    13     4     5   ar
    14     5     6   ar
    15     6    22    1
    16    22    23   ar
    17    23    24   ar
    18    24    25   ar
    19    25    26   ar
    20    26    27   ar
    21     6     7   ar
    22     7    28    1
    23    28    29   ar
    24    29    30   ar
    25    30    31   ar
    26    31    34    1
    27    34    35    1
    28    35    36    1
    29    36    37    1
    30    37    38    1
    31    38    41    1
    32    41    42   ar
    33    42    43   ar
    34    43    44   ar
    35    44    47    1
    36    47    48    2
    37    48    49    1
    38    49    50    1
    39    50    51    2
    40    50    52    1
    41    52    53    2
    42    44    45   ar
    43    38    39    1
    44    39    40    1
    45    31    32   ar
    46    32    33   ar
    47     7     8   ar
    48     8     9   ar
    49     9    10   ar
    50    14    15    1
    51    15    16    1
    52    16    11    1
    53    10     1   ar
    54     9     4   ar
    55    27    22   ar
    56    33    28   ar
    57    40    35    1
    58    45    41   ar
    59    53    47    1
    60    45    46    1
@<TRIPOS>MOLECULE
*****
 53 60 0 0 0
SMALL
GASTEIGER

@<TRIPOS>ATOM
      1 C         141.1305  143.7607  163.4491 C.ar    1  UNL1        0.2216
      2 N         140.5914  145.1336  163.1759 N.ar    1  UNL1       -0.2120
      3 C         140.3832  145.5900  161.7623 C.ar    1  UNL1        0.1048
      4 C         140.7142  144.6735  160.6219 C.ar    1  UNL1        0.0551
      5 C         140.5060  145.1299  159.2082 C.ar    1  UNL1        0.0061
      6 C         140.8369  144.2135  158.0678 C.ar    1  UNL1        0.0179
      7 C         141.3760  142.8406  158.3410 C.ar    1  UNL1        0.0829
      8 N         141.5841  142.3842  159.7546 N.ar    1  UNL1       -0.2264
      9 C         141.2532  143.3007  160.8951 C.ar    1  UNL1        0.1666
     10 N         141.4614  142.8443  162.3087 N.ar    1  UNL1       -0.1945
     11 N         141.7550  142.3914  167.6900 N.3     1  UNL1       -0.2686
     12 C         140.3900  142.8105  167.2306 C.3     1  UNL1        0.0939
     13 C         140.1818  143.2669  165.8169 C.3     1  UNL1        0.1109
     14 N         141.3386  143.3043  164.8628 N.pl3   1  UNL1       -0.2753
     15 C         142.7037  142.8852  165.3223 C.3     1  UNL1        0.1109
     16 C         142.9119  142.4288  166.7358 C.3     1  UNL1        0.0939
     17 C         141.9632  141.9350  169.1036 C.3     1  UNL1        0.0897
     18 C         143.0480  140.9489  169.4212 C.3     1  UNL1        0.0897
     19 C         142.6761  138.4885  170.1683 C.3     1  UNL1        0.0897
     20 N         142.8686  139.4999  169.0774 N.3     1  UNL1       -0.2691
     21 C         142.8818  139.0623  167.6427 C.3     1  UNL1        0.0897
     22 C         140.6287  144.6699  156.6542 C.ar    1  UNL1        0.0015
     23 C         139.2945  144.4830  155.9944 C.ar    1  UNL1        0.0000
     24 C         139.0864  144.9394  154.5808 C.ar    1  UNL1        0.0000
     25 C         140.2124  145.5826  153.8269 C.ar    1  UNL1        0.0000
     26 C         141.5465  145.7695  154.4865 C.ar    1  UNL1        0.0000
     27 C         141.7547  145.3131  155.9002 C.ar    1  UNL1        0.0000
     28 C         141.7069  141.9241  157.2006 C.ar    1  UNL1        0.0177
     29 C         143.0875  141.9249  156.6141 C.ar    1  UNL1        0.0012
     30 C         143.4184  141.0084  155.4737 C.ar    1  UNL1       -0.0029
     31 C         142.3687  140.0912  154.9197 C.ar    1  UNL1       -0.0061
     32 C         140.9881  140.0905  155.5062 C.ar    1  UNL1       -0.0029
     33 C         140.6572  141.0069  156.6466 C.ar    1  UNL1        0.0012
     34 C         142.6996  139.1747  153.7793 C.3     1  UNL1        0.0991
     35 N         142.7198  137.6899  153.9918 N.3     1  UNL1       -0.2689
     36 C         141.9766  136.7875  153.0521 C.3     1  UNL1        0.0728
     37 C         141.9968  135.3028  153.2647 C.3     1  UNL1        0.0249
     38 C         142.7604  134.7205  154.4170 C.3     1  UNL1        0.0613
     39 C         143.5036  135.6230  155.3568 C.3     1  UNL1        0.0249
     40 C         143.4833  137.1077  155.1442 C.3     1  UNL1        0.0728
     41 C         142.7807  133.2358  154.6297 C.ar    1  UNL1        0.1396
     42 N         142.3602  132.1965  153.6331 N.ar    1  UNL1       -0.1336
     43 N         142.5446  130.8481  154.2637 N.ar    1  UNL1       -0.1293
     44 C         143.0791  131.0540  155.6501 C.ar    1  UNL1        0.1639
     45 N         143.2250  132.5297  155.8762 N.ar    1  UNL1       -0.3246
     46 H         143.5544  132.9593  156.6985 H       1  UNL1        0.1686
     47 C         143.4097  129.9738  156.6370 C.2     1  UNL1        0.0485
     48 C         144.2581  130.2857  157.8340 C.2     1  UNL1       -0.0121
     49 C         144.5887  129.2055  158.8209 C.3     1  UNL1        0.1133
     50 C         144.0708  127.8135  158.6108 C.2     1  UNL1        0.2500
     51 O         144.4013  126.7334  159.5977 O.2     1  UNL1       -0.2726
     52 N         143.2223  127.5017  157.4137 N.am    1  UNL1       -0.1775
     53 C         142.8918  128.5819  156.4269 C.2     1  UNL1        0.0913
@<TRIPOS>BOND
     1    19    20    1
     2    20    21    1
     3    20    18    1
     4    18    17    1
     5    17    11    1
     6    11    12    1
     7    12    13    1
     8    13    14    1
     9    14     1    1
    10     1     2   ar
    11     2     3   ar
    12     3     4   ar
    13     4     5   ar
    14     5     6   ar
    15     6    22    1
    16    22    23   ar
    17    23    24   ar
    18    24    25   ar
    19    25    26   ar
    20    26    27   ar
    21     6     7   ar
    22     7    28    1
    23    28    29   ar
    24    29    30   ar
    25    30    31   ar
    26    31    34    1
    27    34    35    1
    28    35    36    1
    29    36    37    1
    30    37    38    1
    31    38    41    1
    32    41    42   ar
    33    42    43   ar
    34    43    44   ar
    35    44    47    1
    36    47    48    2
    37    48    49    1
    38    49    50    1
    39    50    51    2
    40    50    52    1
    41    52    53    2
    42    44    45   ar
    43    38    39    1
    44    39    40    1
    45    31    32   ar
    46    32    33   ar
    47     7     8   ar
    48     8     9   ar
    49     9    10   ar
    50    14    15    1
    51    15    16    1
    52    16    11    1
    53    10     1   ar
    54     9     4   ar
    55    27    22   ar
    56    33    28   ar
    57    40    35    1
    58    45    41   ar
    59    53    47    1
    60    45    46    1
@<TRIPOS>MOLECULE
*****
 53 60 0 0 0
SMALL
GASTEIGER

@<TRIPOS>ATOM
      1 C         143.7329  131.6543  155.7344 C.ar    1  UNL1        0.2216
      2 N         143.1149  131.5411  154.3723 N.ar    1  UNL1       -0.2120
      3 C         142.5993  132.7669  153.6785 C.ar    1  UNL1        0.1048
      4 C         142.7018  134.1060  154.3467 C.ar    1  UNL1        0.0551
      5 C         142.1862  135.3318  153.6527 C.ar    1  UNL1        0.0061
      6 C         142.2886  136.6709  154.3209 C.ar    1  UNL1        0.0179
      7 C         142.9067  136.7841  155.6830 C.ar    1  UNL1        0.0829
      8 N         143.4223  135.5582  156.3768 N.ar    1  UNL1       -0.2264
      9 C         143.3198  134.2192  155.7087 C.ar    1  UNL1        0.1666
     10 N         143.8354  132.9934  156.4025 N.ar    1  UNL1       -0.1945
     11 N         145.2798  127.9768  157.8162 N.3     1  UNL1       -0.2686
     12 C         145.1022  127.9767  156.3267 C.3     1  UNL1        0.0939
     13 C         144.5866  129.2026  155.6328 C.3     1  UNL1        0.1109
     14 N         144.2486  130.4284  156.4283 N.pl3   1  UNL1       -0.2753
     15 C         144.4261  130.4286  157.9177 C.3     1  UNL1        0.1109
     16 C         144.9417  129.2028  158.6117 C.3     1  UNL1        0.0939
     17 C         145.7954  126.7510  158.5101 C.3     1  UNL1        0.0897
     18 C         147.1279  126.7833  159.1981 C.3     1  UNL1        0.0897
     19 C         148.5403  127.3191  161.3119 C.3     1  UNL1        0.0897
     20 N         147.2072  127.0843  160.6655 N.3     1  UNL1       -0.2691
     21 C         145.9536  127.1506  161.4864 C.3     1  UNL1        0.0897
     22 C         141.7731  137.8967  153.6270 C.ar    1  UNL1        0.0015
     23 C         140.3648  138.3561  153.8636 C.ar    1  UNL1        0.0000
     24 C         139.8492  139.5819  153.1697 C.ar    1  UNL1        0.0000
     25 C         140.7418  140.3484  152.2393 C.ar    1  UNL1        0.0000
     26 C         142.1500  139.8892  152.0028 C.ar    1  UNL1        0.0000
     27 C         142.6657  138.6633  152.6967 C.ar    1  UNL1        0.0000
     28 C         143.0092  138.1231  156.3512 C.ar    1  UNL1        0.0177
     29 C         144.1830  139.0137  156.0700 C.ar    1  UNL1        0.0012
     30 C         144.2855  140.3528  156.7381 C.ar    1  UNL1       -0.0029
     31 C         143.2142  140.8012  157.6875 C.ar    1  UNL1       -0.0061
     32 C         142.0404  139.9106  157.9686 C.ar    1  UNL1       -0.0029
     33 C         141.9380  138.5716  157.3005 C.ar    1  UNL1        0.0012
     34 C         143.3167  142.1403  158.3557 C.3     1  UNL1        0.0991
     35 N         142.7186  142.3476  159.7156 N.3     1  UNL1       -0.2689
     36 C         143.4044  141.7932  160.9290 C.3     1  UNL1        0.0728
     37 C         142.8063  142.0005  162.2889 C.3     1  UNL1        0.0249
     38 C         141.5225  142.7622  162.4354 C.3     1  UNL1        0.0613
     39 C         140.8367  143.3167  161.2220 C.3     1  UNL1        0.0249
     40 C         141.4347  143.1093  159.8621 C.3     1  UNL1        0.0728
     41 C         140.9244  142.9696  163.7953 C.ar    1  UNL1        0.1396
     42 N         139.8526  143.9588  164.1457 N.ar    1  UNL1       -0.1336
     43 N         139.5589  143.8247  165.6105 N.ar    1  UNL1       -0.1293
     44 C         140.4492  142.7525  166.1655 C.ar    1  UNL1        0.1639
     45 N         141.2931  142.2241  165.0436 N.ar    1  UNL1       -0.3246
     46 H         141.9701  141.5128  165.1142 H       1  UNL1        0.1686
     47 C         140.4887  142.2901  167.5919 C.2     1  UNL1        0.0485
     48 C         140.3514  143.2842  168.7067 C.2     1  UNL1       -0.0121
     49 C         140.3908  142.8218  170.1331 C.3     1  UNL1        0.1133
     50 C         140.5676  141.3652  170.4447 C.2     1  UNL1        0.2500
     51 O         140.6070  140.9028  171.8710 O.2     1  UNL1       -0.2726
     52 N         140.7049  140.3710  169.3298 N.am    1  UNL1       -0.1775
     53 C         140.6654  140.8335  167.9035 C.2     1  UNL1        0.0913
@<TRIPOS>BOND
     1    19    20    1
     2    20    21    1
     3    20    18    1
     4    18    17    1
     5    17    11    1
     6    11    12    1
     7    12    13    1
     8    13    14    1
     9    14     1    1
    10     1     2   ar
    11     2     3   ar
    12     3     4   ar
    13     4     5   ar
    14     5     6   ar
    15     6    22    1
    16    22    23   ar
    17    23    24   ar
    18    24    25   ar
    19    25    26   ar
    20    26    27   ar
    21     6     7   ar
    22     7    28    1
    23    28    29   ar
    24    29    30   ar
    25    30    31   ar
    26    31    34    1
    27    34    35    1
    28    35    36    1
    29    36    37    1
    30    37    38    1
    31    38    41    1
    32    41    42   ar
    33    42    43   ar
    34    43    44   ar
    35    44    47    1
    36    47    48    2
    37    48    49    1
    38    49    50    1
    39    50    51    2
    40    50    52    1
    41    52    53    2
    42    44    45   ar
    43    38    39    1
    44    39    40    1
    45    31    32   ar
    46    32    33   ar
    47     7     8   ar
    48     8     9   ar
    49     9    10   ar
    50    14    15    1
    51    15    16    1
    52    16    11    1
    53    10     1   ar
    54     9     4   ar
    55    27    22   ar
    56    33    28   ar
    57    40    35    1
    58    45    41   ar
    59    53    47    1
    60    45    46    1
