@<TRIPOS>MOLECULE
*****
 30 32 0 0 0
SMALL
GASTEIGER

@<TRIPOS>ATOM
      1 C         140.7422  144.0636  163.0216 C.ar    1  UNL1        0.0873
      2 S         141.7178  144.5636  161.9979 S.2     1  UNL1       -0.0433
      3 C         140.9387  145.2210  160.8975 C.ar    1  UNL1        0.1669
      4 N         139.4816  145.1272  161.2412 N.ar    1  UNL1       -0.2276
      5 C         139.3601  144.4118  162.5541 C.ar    1  UNL1        0.0750
      6 C         138.0812  144.0996  163.2730 C.3     1  UNL1        0.0534
      7 N         141.5155  145.8600  159.6691 N.am    1  UNL1       -0.2484
      8 C         140.9473  145.5376  158.3188 C.2     1  UNL1        0.3060
      9 O         139.8023  144.5762  158.1970 O.2     1  UNL1       -0.2524
     10 N         141.5240  146.1766  157.0903 N.am    1  UNL1       -0.2862
     11 H         142.2669  146.4910  159.7491 H       1  UNL1        0.1583
     12 H         142.2754  146.8076  157.1703 H       1  UNL1        0.1511
     13 C         140.9558  145.8542  155.7401 C.3     1  UNL1        0.1203
     14 C         139.7703  146.6149  155.2241 C.3     1  UNL1        0.1348
     15 C         138.4414  145.9323  155.0910 C.3     1  UNL1        0.0339
     16 O         139.9140  148.0580  154.8413 O.3     1  UNL1       -0.3545
     17 C         138.8655  149.0502  155.2494 C.3     1  UNL1        0.1420
     18 C         139.1296  150.5202  155.1107 C.3     1  UNL1        0.0297
     19 C         139.9441  151.6461  154.5460 C.3     1  UNL1        0.0026
     20 C         138.7726  151.9405  155.4353 C.3     1  UNL1        0.0026
     21 C         141.4336  142.6202  165.5591 C.1     1  UNL1       -0.0577
     22 C         141.0879  143.3418  164.2904 C.1     1  UNL1       -0.0519
     23 C         144.1169  142.3619  170.0013 C.3     1  UNL1        0.0323
     24 C         143.1209  141.7693  169.0490 C.ar    1  UNL1       -0.0076
     25 C         142.7752  142.4910  167.7803 C.ar    1  UNL1        0.0067
     26 C         141.7793  141.8984  166.8279 C.ar    1  UNL1        0.0608
     27 C         141.1291  140.5843  167.1442 C.ar    1  UNL1        0.1066
     28 N         141.4748  139.8626  168.4129 N.ar    1  UNL1       -0.2478
     29 C         142.4707  140.4552  169.3653 C.ar    1  UNL1        0.0555
     30 C         142.8164  139.7334  170.6340 C.3     1  UNL1        0.0518
@<TRIPOS>BOND
     1    23    24    1
     2    24    25   ar
     3    25    26   ar
     4    26    21    1
     5    21    22    3
     6    22     1    1
     7     1     2   ar
     8     2     3   ar
     9     3     7    1
    10     7     8   am
    11     8     9    2
    12     8    10   am
    13    10    13    1
    14    13    14    1
    15    14    15    1
    16    14    16    1
    17    16    17    1
    18    17    18    1
    19    18    19    1
    20    19    20    1
    21     3     4   ar
    22     4     5   ar
    23     5     6    1
    24    26    27   ar
    25    27    28   ar
    26    28    29   ar
    27    29    30    1
    28    29    24   ar
    29     5     1   ar
    30    20    18    1
    31     7    11    1
    32    10    12    1
@<TRIPOS>MOLECULE
*****
 30 32 0 0 0
SMALL
GASTEIGER

@<TRIPOS>ATOM
      1 C         140.7216  144.1323  162.8380 C.ar    1  UNL1        0.0873
      2 S         141.7864  144.5589  161.8715 S.2     1  UNL1       -0.0433
      3 C         141.1107  145.1157  160.6536 C.ar    1  UNL1        0.1669
      4 N         139.6283  145.0332  160.8673 N.ar    1  UNL1       -0.2276
      5 C         139.3878  144.4254  162.2175 C.ar    1  UNL1        0.0750
      6 C         138.0486  144.1577  162.8380 C.3     1  UNL1        0.0534
      7 N         141.7969  145.6595  159.4357 N.am    1  UNL1       -0.2484
      8 C         141.8072  144.8654  158.1632 C.2     1  UNL1        0.3060
      9 O         141.1313  143.5274  158.1086 O.2     1  UNL1       -0.2524
     10 N         142.4935  145.4092  156.9452 N.am    1  UNL1       -0.2862
     11 H         142.2406  146.5377  159.4715 H       1  UNL1        0.1583
     12 H         142.9371  146.2873  156.9810 H       1  UNL1        0.1511
     13 C         142.5038  144.6151  155.6727 C.3     1  UNL1        0.1203
     14 C         141.4689  144.8745  154.6183 C.3     1  UNL1        0.1348
     15 C         141.7847  145.7788  153.4640 C.3     1  UNL1        0.0339
     16 O         140.1183  144.2297  154.7182 O.3     1  UNL1       -0.3545
     17 C         138.8897  145.0794  154.8548 C.3     1  UNL1        0.1420
     18 C         138.9931  146.4600  155.4321 C.3     1  UNL1        0.0297
     19 C         139.2465  147.3629  156.6028 C.3     1  UNL1        0.0026
     20 C         138.9187  147.9484  155.2613 C.3     1  UNL1        0.0026
     21 C         141.1791  142.9077  165.5383 C.1     1  UNL1       -0.0577
     22 C         140.9504  143.5200  164.1882 C.1     1  UNL1       -0.0519
     23 C         139.3243  140.5691  169.7916 C.3     1  UNL1        0.0323
     24 C         140.4804  141.1262  169.0150 C.ar    1  UNL1       -0.0076
     25 C         140.2517  141.7384  167.6649 C.ar    1  UNL1        0.0067
     26 C         141.4079  142.2955  166.8884 C.ar    1  UNL1        0.0608
     27 C         142.7928  142.2403  167.4620 C.ar    1  UNL1        0.1066
     28 N         143.0215  141.6280  168.8121 N.ar    1  UNL1       -0.2478
     29 C         141.8653  141.0710  169.5886 C.ar    1  UNL1        0.0555
     30 C         142.0941  140.4587  170.9388 C.3     1  UNL1        0.0518
@<TRIPOS>BOND
     1    23    24    1
     2    24    25   ar
     3    25    26   ar
     4    26    21    1
     5    21    22    3
     6    22     1    1
     7     1     2   ar
     8     2     3   ar
     9     3     7    1
    10     7     8   am
    11     8     9    2
    12     8    10   am
    13    10    13    1
    14    13    14    1
    15    14    15    1
    16    14    16    1
    17    16    17    1
    18    17    18    1
    19    18    19    1
    20    19    20    1
    21     3     4   ar
    22     4     5   ar
    23     5     6    1
    24    26    27   ar
    25    27    28   ar
    26    28    29   ar
    27    29    30    1
    28    29    24   ar
    29     5     1   ar
    30    20    18    1
    31     7    11    1
    32    10    12    1
@<TRIPOS>MOLECULE
*****
 30 32 0 0 0
SMALL
GASTEIGER

@<TRIPOS>ATOM
      1 C         140.2423  143.7991  163.5712 C.ar    1  UNL1        0.0873
      2 S         141.1309  144.3095  162.4759 S.2     1  UNL1       -0.0433
      3 C         140.3045  145.1803  161.5765 C.ar    1  UNL1        0.1669
      4 N         138.9051  145.2080  162.1159 N.ar    1  UNL1       -0.2276
      5 C         138.8666  144.3543  163.3488 C.ar    1  UNL1        0.0750
      6 C         137.6638  144.1005  164.2082 C.3     1  UNL1        0.0534
      7 N         140.7920  145.8974  160.3525 N.am    1  UNL1       -0.2484
      8 C         140.3651  145.4333  158.9915 C.2     1  UNL1        0.3060
      9 O         139.4508  144.2520  158.8544 O.2     1  UNL1       -0.2524
     10 N         140.8525  146.1504  157.7675 N.am    1  UNL1       -0.2862
     11 H         141.3920  146.6726  160.4425 H       1  UNL1        0.1583
     12 H         141.4526  146.9256  157.8574 H       1  UNL1        0.1511
     13 C         140.4257  145.6863  156.4064 C.3     1  UNL1        0.1203
     14 C         139.1629  146.2169  155.7949 C.3     1  UNL1        0.1348
     15 C         138.9719  147.6958  155.6332 C.3     1  UNL1        0.0339
     16 O         138.0913  145.2686  155.3452 O.3     1  UNL1       -0.3545
     17 C         138.3612  143.7935  155.3109 C.3     1  UNL1        0.1420
     18 C         137.2559  142.8218  155.6010 C.3     1  UNL1        0.0297
     19 C         136.6600  141.7535  156.4691 C.3     1  UNL1        0.0026
     20 C         135.9374  142.2072  155.2354 C.3     1  UNL1        0.0026
     21 C         141.0706  141.9860  165.8132 C.1     1  UNL1       -0.0577
     22 C         140.6565  142.8925  164.6922 C.1     1  UNL1       -0.0519
     23 C         140.3348  140.1418  170.6150 C.3     1  UNL1        0.0323
     24 C         141.1168  140.1573  169.3352 C.ar    1  UNL1       -0.0076
     25 C         140.7027  141.0638  168.2142 C.ar    1  UNL1        0.0067
     26 C         141.4848  141.0794  166.9343 C.ar    1  UNL1        0.0608
     27 C         142.6810  140.1885  166.7754 C.ar    1  UNL1        0.1066
     28 N         143.0951  139.2820  167.8964 N.ar    1  UNL1       -0.2478
     29 C         142.3130  139.2664  169.1763 C.ar    1  UNL1        0.0555
     30 C         142.7272  138.3599  170.2973 C.3     1  UNL1        0.0518
@<TRIPOS>BOND
     1    23    24    1
     2    24    25   ar
     3    25    26   ar
     4    26    21    1
     5    21    22    3
     6    22     1    1
     7     1     2   ar
     8     2     3   ar
     9     3     7    1
    10     7     8   am
    11     8     9    2
    12     8    10   am
    13    10    13    1
    14    13    14    1
    15    14    15    1
    16    14    16    1
    17    16    17    1
    18    17    18    1
    19    18    19    1
    20    19    20    1
    21     3     4   ar
    22     4     5   ar
    23     5     6    1
    24    26    27   ar
    25    27    28   ar
    26    28    29   ar
    27    29    30    1
    28    29    24   ar
    29     5     1   ar
    30    20    18    1
    31     7    11    1
    32    10    12    1
@<TRIPOS>MOLECULE
*****
 30 32 0 0 0
SMALL
GASTEIGER

@<TRIPOS>ATOM
      1 C         142.2929  138.6980  158.2559 C.ar    1  UNL1        0.0873
      2 S         143.2508  139.7774  158.6648 S.2     1  UNL1       -0.0433
      3 C         142.4490  140.9661  159.1055 C.ar    1  UNL1        0.1669
      4 N         140.9955  140.6212  158.9690 N.ar    1  UNL1       -0.2276
      5 C         140.8991  139.2193  158.4439 C.ar    1  UNL1        0.0750
      6 C         139.6314  138.4705  158.1571 C.3     1  UNL1        0.0534
      7 N         143.0032  142.2705  159.5965 N.am    1  UNL1       -0.2484
      8 C         143.2574  142.4737  161.0607 C.2     1  UNL1        0.3060
      9 O         142.9574  141.3725  162.0340 O.2     1  UNL1       -0.2524
     10 N         143.8117  143.7782  161.5518 N.am    1  UNL1       -0.2862
     11 H         143.2001  142.9933  158.9577 H       1  UNL1        0.1583
     12 H         144.0087  144.5010  160.9131 H       1  UNL1        0.1511
     13 C         144.0660  143.9815  163.0161 C.3     1  UNL1        0.1203
     14 C         142.9137  144.1608  163.9596 C.3     1  UNL1        0.1348
     15 C         142.6830  143.1669  165.0590 C.3     1  UNL1        0.0339
     16 O         141.9923  145.3341  163.8037 O.3     1  UNL1       -0.3545
     17 C         140.6293  145.1433  163.2073 C.3     1  UNL1        0.1420
     18 C         139.4666  144.7966  164.0892 C.3     1  UNL1        0.0297
     19 C         138.7581  144.9044  165.4070 C.3     1  UNL1        0.0026
     20 C         138.1611  144.0883  164.2991 C.3     1  UNL1        0.0026
     21 C         143.0346  135.9742  157.2405 C.1     1  UNL1       -0.0577
     22 C         142.6638  137.3360  157.7482 C.1     1  UNL1       -0.0519
     23 C         145.1293  131.2877  158.0464 C.3     1  UNL1        0.0323
     24 C         144.4528  132.2691  157.1358 C.ar    1  UNL1       -0.0076
     25 C         144.0820  133.6309  157.6434 C.ar    1  UNL1        0.0067
     26 C         143.4054  134.6122  156.7328 C.ar    1  UNL1        0.0608
     27 C         143.0997  134.2317  155.3144 C.ar    1  UNL1        0.1066
     28 N         143.4706  132.8699  154.8068 N.ar    1  UNL1       -0.2478
     29 C         144.1471  131.8885  155.7174 C.ar    1  UNL1        0.0555
     30 C         144.5180  130.5266  155.2097 C.3     1  UNL1        0.0518
@<TRIPOS>BOND
     1    23    24    1
     2    24    25   ar
     3    25    26   ar
     4    26    21    1
     5    21    22    3
     6    22     1    1
     7     1     2   ar
     8     2     3   ar
     9     3     7    1
    10     7     8   am
    11     8     9    2
    12     8    10   am
    13    10    13    1
    14    13    14    1
    15    14    15    1
    16    14    16    1
    17    16    17    1
    18    17    18    1
    19    18    19    1
    20    19    20    1
    21     3     4   ar
    22     4     5   ar
    23     5     6    1
    24    26    27   ar
    25    27    28   ar
    26    28    29   ar
    27    29    30    1
    28    29    24   ar
    29     5     1   ar
    30    20    18    1
    31     7    11    1
    32    10    12    1
@<TRIPOS>MOLECULE
*****
 30 32 0 0 0
SMALL
GASTEIGER

@<TRIPOS>ATOM
      1 C         141.1001  138.9181  157.6017 C.ar    1  UNL1        0.0873
      2 S         139.9538  139.1513  158.5406 S.2     1  UNL1       -0.0433
      3 C         139.7157  140.6300  158.6231 C.ar    1  UNL1        0.1669
      4 N         140.7150  141.3107  157.7352 N.ar    1  UNL1       -0.2276
      5 C         141.5706  140.2526  157.1039 C.ar    1  UNL1        0.0750
      6 C         142.6986  140.4878  156.1435 C.3     1  UNL1        0.0534
      7 N         138.6633  141.3088  159.4486 N.am    1  UNL1       -0.2484
      8 C         138.9612  141.7070  160.8638 C.2     1  UNL1        0.3060
      9 O         140.3116  141.4263  161.4535 O.2     1  UNL1       -0.2524
     10 N         137.9088  142.3858  161.6893 N.am    1  UNL1       -0.2862
     11 H         137.7770  141.4929  159.0616 H       1  UNL1        0.1583
     12 H         137.0224  142.5700  161.3024 H       1  UNL1        0.1511
     13 C         138.2066  142.7840  163.1045 C.3     1  UNL1        0.1203
     14 C         138.3420  144.2343  163.4629 C.3     1  UNL1        0.1348
     15 C         138.3862  144.6497  164.9035 C.3     1  UNL1        0.0339
     16 O         138.4331  145.2689  162.3808 O.3     1  UNL1       -0.3545
     17 C         139.7726  145.6715  161.8389 C.3     1  UNL1        0.1420
     18 C         141.0256  145.2541  162.5500 C.3     1  UNL1        0.0297
     19 C         142.3042  144.4703  162.5770 C.3     1  UNL1        0.0026
     20 C         141.9173  145.3150  163.7546 C.3     1  UNL1        0.0026
     21 C         142.2501  136.2508  156.8511 C.1     1  UNL1       -0.0577
     22 C         141.6752  137.5844  157.2264 C.1     1  UNL1       -0.0519
     23 C         145.2642  132.1713  157.9796 C.3     1  UNL1        0.0323
     24 C         144.3322  132.8775  157.0401 C.ar    1  UNL1       -0.0076
     25 C         143.7571  134.2110  157.4153 C.ar    1  UNL1        0.0067
     26 C         142.8251  134.9172  156.4758 C.ar    1  UNL1        0.0608
     27 C         142.4682  134.2897  155.1609 C.ar    1  UNL1        0.1066
     28 N         143.0432  132.9561  154.7857 N.ar    1  UNL1       -0.2478
     29 C         143.9752  132.2500  155.7252 C.ar    1  UNL1        0.0555
     30 C         144.5502  130.9164  155.3499 C.3     1  UNL1        0.0518
@<TRIPOS>BOND
     1    23    24    1
     2    24    25   ar
     3    25    26   ar
     4    26    21    1
     5    21    22    3
     6    22     1    1
     7     1     2   ar
     8     2     3   ar
     9     3     7    1
    10     7     8   am
    11     8     9    2
    12     8    10   am
    13    10    13    1
    14    13    14    1
    15    14    15    1
    16    14    16    1
    17    16    17    1
    18    17    18    1
    19    18    19    1
    20    19    20    1
    21     3     4   ar
    22     4     5   ar
    23     5     6    1
    24    26    27   ar
    25    27    28   ar
    26    28    29   ar
    27    29    30    1
    28    29    24   ar
    29     5     1   ar
    30    20    18    1
    31     7    11    1
    32    10    12    1
@<TRIPOS>MOLECULE
*****
 30 32 0 0 0
SMALL
GASTEIGER

@<TRIPOS>ATOM
      1 C         139.7633  139.7291  161.0495 C.ar    1  UNL1        0.0873
      2 S         139.4287  138.5138  160.2364 S.2     1  UNL1       -0.0433
      3 C         139.6507  138.8477  158.7910 C.ar    1  UNL1        0.1669
      4 N         140.1224  140.2694  158.7108 N.ar    1  UNL1       -0.2276
      5 C         140.1920  140.8141  160.1067 C.ar    1  UNL1        0.0750
      6 C         140.6158  142.2004  160.4920 C.3     1  UNL1        0.0534
      7 N         139.4382  137.9225  157.6297 N.am    1  UNL1       -0.2484
      8 C         140.6174  137.3186  156.9264 C.2     1  UNL1        0.3060
      9 O         142.0093  137.6400  157.3844 O.2     1  UNL1       -0.2524
     10 N         140.4051  136.3933  155.7650 N.am    1  UNL1       -0.2862
     11 H         138.5248  137.7116  157.3291 H       1  UNL1        0.1583
     12 H         139.4917  136.1823  155.4644 H       1  UNL1        0.1511
     13 C         141.5843  135.7894  155.0617 C.3     1  UNL1        0.1203
     14 C         142.0895  134.4373  155.4700 C.3     1  UNL1        0.1348
     15 C         142.1457  133.3235  154.4670 C.3     1  UNL1        0.0339
     16 O         142.5384  134.1992  156.8813 O.3     1  UNL1       -0.3545
     17 C         143.9833  133.9202  157.1718 C.3     1  UNL1        0.1420
     18 C         144.5030  132.5145  157.1100 C.3     1  UNL1        0.0297
     19 C         145.0563  131.3677  156.3171 C.3     1  UNL1        0.0026
     20 C         144.8496  131.2264  157.7960 C.3     1  UNL1        0.0026
     21 C         139.6031  139.9507  164.0370 C.1     1  UNL1       -0.0577
     22 C         139.6832  139.8399  162.5433 C.1     1  UNL1       -0.0519
     23 C         141.0146  142.2878  168.4581 C.3     1  UNL1        0.0323
     24 C         140.2288  141.2301  167.7413 C.ar    1  UNL1       -0.0076
     25 C         140.3088  141.1192  166.2476 C.ar    1  UNL1        0.0067
     26 C         139.5230  140.0616  165.5308 C.ar    1  UNL1        0.0608
     27 C         138.6571  139.1147  166.3078 C.ar    1  UNL1        0.1066
     28 N         138.5771  139.2256  167.8015 N.ar    1  UNL1       -0.2478
     29 C         139.3629  140.2833  168.5183 C.ar    1  UNL1        0.0555
     30 C         139.2828  140.3941  170.0121 C.3     1  UNL1        0.0518
@<TRIPOS>BOND
     1    23    24    1
     2    24    25   ar
     3    25    26   ar
     4    26    21    1
     5    21    22    3
     6    22     1    1
     7     1     2   ar
     8     2     3   ar
     9     3     7    1
    10     7     8   am
    11     8     9    2
    12     8    10   am
    13    10    13    1
    14    13    14    1
    15    14    15    1
    16    14    16    1
    17    16    17    1
    18    17    18    1
    19    18    19    1
    20    19    20    1
    21     3     4   ar
    22     4     5   ar
    23     5     6    1
    24    26    27   ar
    25    27    28   ar
    26    28    29   ar
    27    29    30    1
    28    29    24   ar
    29     5     1   ar
    30    20    18    1
    31     7    11    1
    32    10    12    1
@<TRIPOS>MOLECULE
*****
 30 32 0 0 0
SMALL
GASTEIGER

@<TRIPOS>ATOM
      1 C         143.6197  140.0876  157.6072 C.ar    1  UNL1        0.0873
      2 S         142.9882  140.8784  158.7143 S.2     1  UNL1       -0.0433
      3 C         143.6812  142.2067  158.7889 C.ar    1  UNL1        0.1669
      4 N         144.7411  142.2368  157.7278 N.ar    1  UNL1       -0.2276
      5 C         144.7031  140.9270  156.9975 C.ar    1  UNL1        0.0750
      6 C         145.5923  140.5271  155.8576 C.3     1  UNL1        0.0534
      7 N         143.3691  143.3109  159.7549 N.am    1  UNL1       -0.2484
      8 C         143.8628  143.2320  161.1691 C.2     1  UNL1        0.3060
      9 O         144.6686  142.0488  161.6174 O.2     1  UNL1       -0.2524
     10 N         143.5507  144.3362  162.1352 N.am    1  UNL1       -0.2862
     11 H         142.8403  144.0874  159.4607 H       1  UNL1        0.1583
     12 H         143.0219  145.1128  161.8410 H       1  UNL1        0.1511
     13 C         144.0444  144.2574  163.5494 C.3     1  UNL1        0.1203
     14 C         143.2847  143.4570  164.5655 C.3     1  UNL1        0.1348
     15 C         143.9515  143.0400  165.8427 C.3     1  UNL1        0.0339
     16 O         141.8582  143.0738  164.3043 O.3     1  UNL1       -0.3545
     17 C         140.8297  143.2302  165.3849 C.3     1  UNL1        0.1420
     18 C         139.6049  144.0607  165.1400 C.3     1  UNL1        0.0297
     19 C         138.5938  144.6366  164.1934 C.3     1  UNL1        0.0026
     20 C         138.4945  144.9234  165.6623 C.3     1  UNL1        0.0026
     21 C         142.8512  137.3140  156.7609 C.1     1  UNL1       -0.0577
     22 C         143.2355  138.7008  157.1840 C.1     1  UNL1       -0.0519
     23 C         143.4565  132.1664  157.1300 C.3     1  UNL1        0.0323
     24 C         142.7696  133.3533  156.5223 C.ar    1  UNL1       -0.0076
     25 C         143.1538  134.7401  156.9454 C.ar    1  UNL1        0.0067
     26 C         142.4669  135.9271  156.3377 C.ar    1  UNL1        0.0608
     27 C         141.3958  135.7272  155.3068 C.ar    1  UNL1        0.1066
     28 N         141.0116  134.3404  154.8837 N.ar    1  UNL1       -0.2478
     29 C         141.6985  133.1535  155.4914 C.ar    1  UNL1        0.0555
     30 C         141.3142  131.7666  155.0682 C.3     1  UNL1        0.0518
@<TRIPOS>BOND
     1    23    24    1
     2    24    25   ar
     3    25    26   ar
     4    26    21    1
     5    21    22    3
     6    22     1    1
     7     1     2   ar
     8     2     3   ar
     9     3     7    1
    10     7     8   am
    11     8     9    2
    12     8    10   am
    13    10    13    1
    14    13    14    1
    15    14    15    1
    16    14    16    1
    17    16    17    1
    18    17    18    1
    19    18    19    1
    20    19    20    1
    21     3     4   ar
    22     4     5   ar
    23     5     6    1
    24    26    27   ar
    25    27    28   ar
    26    28    29   ar
    27    29    30    1
    28    29    24   ar
    29     5     1   ar
    30    20    18    1
    31     7    11    1
    32    10    12    1
@<TRIPOS>MOLECULE
*****
 30 32 0 0 0
SMALL
GASTEIGER

@<TRIPOS>ATOM
      1 C         138.5563  141.5962  162.8571 C.ar    1  UNL1        0.0873
      2 S         138.5254  140.4889  161.8457 S.2     1  UNL1       -0.0433
      3 C         138.0338  141.0596  160.5485 C.ar    1  UNL1        0.1669
      4 N         137.7609  142.5196  160.7582 N.ar    1  UNL1       -0.2276
      5 C         138.0838  142.8512  162.1851 C.ar    1  UNL1        0.0750
      6 C         137.9566  144.2009  162.8271 C.3     1  UNL1        0.0534
      7 N         137.8478  140.3031  159.2667 N.am    1  UNL1       -0.2484
      8 C         139.0364  139.9630  158.4173 C.2     1  UNL1        0.3060
      9 O         140.4111  140.3794  158.8497 O.2     1  UNL1       -0.2524
     10 N         138.8505  139.2065  157.1354 N.am    1  UNL1       -0.2862
     11 H         136.9456  140.0298  158.9829 H       1  UNL1        0.1583
     12 H         137.9483  138.9332  156.8516 H       1  UNL1        0.1511
     13 C         140.0391  138.8664  156.2860 C.3     1  UNL1        0.1203
     14 C         140.6005  137.4755  156.3040 C.3     1  UNL1        0.1348
     15 C         140.0859  136.4466  155.3416 C.3     1  UNL1        0.0339
     16 O         141.6765  137.1137  157.2845 O.3     1  UNL1       -0.3545
     17 C         142.9553  136.4966  156.8008 C.3     1  UNL1        0.1420
     18 C         143.1314  135.0075  156.8405 C.3     1  UNL1        0.0297
     19 C         142.6985  133.6363  156.4134 C.3     1  UNL1        0.0026
     20 C         143.8696  133.7995  157.3363 C.3     1  UNL1        0.0026
     21 C         139.4127  141.3448  165.7213 C.1     1  UNL1       -0.0577
     22 C         138.9845  141.4705  164.2892 C.1     1  UNL1       -0.0519
     23 C         141.6209  143.3955  169.9543 C.3     1  UNL1        0.0323
     24 C         140.9450  142.2445  169.2699 C.ar    1  UNL1       -0.0076
     25 C         140.5168  142.3701  167.8378 C.ar    1  UNL1        0.0067
     26 C         139.8409  141.2192  167.1534 C.ar    1  UNL1        0.0608
     27 C         139.5932  139.9426  167.9010 C.ar    1  UNL1        0.1066
     28 N         140.0214  139.8170  169.3331 N.ar    1  UNL1       -0.2478
     29 C         140.6973  140.9680  170.0175 C.ar    1  UNL1        0.0555
     30 C         141.1255  140.8423  171.4496 C.3     1  UNL1        0.0518
@<TRIPOS>BOND
     1    23    24    1
     2    24    25   ar
     3    25    26   ar
     4    26    21    1
     5    21    22    3
     6    22     1    1
     7     1     2   ar
     8     2     3   ar
     9     3     7    1
    10     7     8   am
    11     8     9    2
    12     8    10   am
    13    10    13    1
    14    13    14    1
    15    14    15    1
    16    14    16    1
    17    16    17    1
    18    17    18    1
    19    18    19    1
    20    19    20    1
    21     3     4   ar
    22     4     5   ar
    23     5     6    1
    24    26    27   ar
    25    27    28   ar
    26    28    29   ar
    27    29    30    1
    28    29    24   ar
    29     5     1   ar
    30    20    18    1
    31     7    11    1
    32    10    12    1
@<TRIPOS>MOLECULE
*****
 30 32 0 0 0
SMALL
GASTEIGER

@<TRIPOS>ATOM
      1 C         139.5756  141.8295  162.3694 C.ar    1  UNL1        0.0873
      2 S         140.0924  141.4415  161.0158 S.2     1  UNL1       -0.0433
      3 C         139.2836  142.1708  159.9843 C.ar    1  UNL1        0.1669
      4 N         138.2668  143.0096  160.7005 N.ar    1  UNL1       -0.2276
      5 C         138.4473  142.7986  162.1747 C.ar    1  UNL1        0.0750
      6 C         137.6411  143.4435  163.2628 C.3     1  UNL1        0.0534
      7 N         139.4604  142.0777  158.4978 N.am    1  UNL1       -0.2484
      8 C         138.6404  141.1040  157.7045 C.2     1  UNL1        0.3060
      9 O         137.6435  140.2232  158.3978 O.2     1  UNL1       -0.2524
     10 N         138.8171  141.0108  156.2178 N.am    1  UNL1       -0.2862
     11 H         140.1146  142.6558  158.0427 H       1  UNL1        0.1583
     12 H         139.4714  141.5888  155.7627 H       1  UNL1        0.1511
     13 C         137.9971  140.0370  155.4245 C.3     1  UNL1        0.1203
     14 C         136.5655  140.3490  155.1032 C.3     1  UNL1        0.1348
     15 C         136.2230  141.5890  154.3319 C.3     1  UNL1        0.0339
     16 O         135.4765  139.4209  155.5533 O.3     1  UNL1       -0.3545
     17 C         134.1135  139.9615  155.8697 C.3     1  UNL1        0.1420
     18 C         133.1738  139.1697  156.7300 C.3     1  UNL1        0.0297
     19 C         131.8487  138.4948  156.9264 C.3     1  UNL1        0.0026
     20 C         132.8712  138.4733  158.0236 C.3     1  UNL1        0.0026
     21 C         140.6158  140.8409  165.0039 C.1     1  UNL1       -0.0577
     22 C         140.0957  141.3352  163.6867 C.1     1  UNL1       -0.0519
     23 C         140.0196  140.2110  170.1272 C.3     1  UNL1        0.0323
     24 C         140.8378  140.0316  168.8829 C.ar    1  UNL1       -0.0076
     25 C         140.3177  140.5259  167.5656 C.ar    1  UNL1        0.0067
     26 C         141.1359  140.3465  166.3212 C.ar    1  UNL1        0.0608
     27 C         142.4741  139.6729  166.3941 C.ar    1  UNL1        0.1066
     28 N         142.9941  139.1786  167.7114 N.ar    1  UNL1       -0.2478
     29 C         142.1760  139.3580  168.9558 C.ar    1  UNL1        0.0555
     30 C         142.6961  138.8637  170.2731 C.3     1  UNL1        0.0518
@<TRIPOS>BOND
     1    23    24    1
     2    24    25   ar
     3    25    26   ar
     4    26    21    1
     5    21    22    3
     6    22     1    1
     7     1     2   ar
     8     2     3   ar
     9     3     7    1
    10     7     8   am
    11     8     9    2
    12     8    10   am
    13    10    13    1
    14    13    14    1
    15    14    15    1
    16    14    16    1
    17    16    17    1
    18    17    18    1
    19    18    19    1
    20    19    20    1
    21     3     4   ar
    22     4     5   ar
    23     5     6    1
    24    26    27   ar
    25    27    28   ar
    26    28    29   ar
    27    29    30    1
    28    29    24   ar
    29     5     1   ar
    30    20    18    1
    31     7    11    1
    32    10    12    1
