@<TRIPOS>MOLECULE
*****
 39 44 0 0 0
SMALL
GASTEIGER

@<TRIPOS>ATOM
      1 C         140.6126  139.6585  157.9102 C.3     1  UNL1        0.0135
      2 C         141.1906  138.4015  158.4895 C.3     1  UNL1        0.0182
      3 C         142.4285  138.4650  159.3344 C.3     1  UNL1        0.0721
      4 C         141.6989  139.7892  168.9081 C.ar    1  UNL1        0.2057
      5 N         142.9529  139.4506  168.1578 N.ar    1  UNL1       -0.2121
      6 C         142.6066  139.3390  166.7027 C.ar    1  UNL1        0.1187
      7 C         143.4384  139.0267  165.4941 C.ar    1  UNL1        0.0178
      8 C         142.8021  138.9841  164.1363 C.ar    1  UNL1       -0.0225
      9 C         141.3342  139.2537  163.9872 C.ar    1  UNL1       -0.0154
     10 C         140.5024  139.5660  165.1957 C.ar    1  UNL1        0.0664
     11 BR        139.0344  139.8356  165.0465 Br      1  UNL1       -0.0461
     12 C         141.1386  139.6087  166.5535 C.ar    1  UNL1        0.1701
     13 O         140.5776  139.8869  167.9165 O.2     1  UNL1       -0.4379
     14 C         140.5072  139.2616  162.7358 C.3     1  UNL1        0.0439
     15 C         140.9440  139.0018  161.3244 C.3     1  UNL1        0.0768
     16 N         142.3155  138.6699  160.8161 N.3     1  UNL1       -0.2721
     17 C         143.5892  138.5159  161.5933 C.3     1  UNL1        0.0768
     18 C         143.8058  138.6557  163.0710 C.3     1  UNL1        0.0434
     19 C         140.8772  141.2017  170.9280 C.3     1  UNL1        0.0102
     20 C         141.5859  139.9942  170.3897 C.3     1  UNL1        0.0853
     21 C         139.2093  139.6641  157.3805 C.3     1  UNL1        0.0652
     22 S         138.3060  140.8280  157.6621 S.3     1  UNL1       -0.0757
     23 C         138.6912  141.8431  158.6971 C.ar    1  UNL1        0.1932
     24 N         139.3641  143.1578  158.4350 N.ar    1  UNL1       -0.1221
     25 N         139.5599  143.8490  159.7517 N.ar    1  UNL1       -0.1282
     26 C         139.0080  142.9614  160.8277 C.ar    1  UNL1        0.1669
     27 N         138.4711  141.7218  160.1759 N.ar    1  UNL1       -0.2884
     28 C         137.8271  140.5639  160.8794 C.3     1  UNL1        0.1340
     29 C         138.9952  143.2610  162.2974 C.ar    1  UNL1        0.0374
     30 C         137.7246  143.7009  162.9622 C.ar    1  UNL1        0.0031
     31 C         137.7118  144.0005  164.4319 C.ar    1  UNL1        0.0016
     32 C         138.9698  143.8602  165.2369 C.ar    1  UNL1        0.0191
     33 C         140.2404  143.4203  164.5721 C.ar    1  UNL1        0.0810
     34 N         141.4983  143.2800  165.3770 N.ar    1  UNL1       -0.2497
     35 C         142.7690  142.8402  164.7124 C.ar    1  UNL1        0.0593
     36 C         144.0269  142.6999  165.5173 C.3     1  UNL1        0.0521
     37 C         142.7817  142.5406  163.2426 C.ar    1  UNL1        0.0147
     38 C         141.5238  142.6809  162.4377 C.ar    1  UNL1        0.0028
     39 C         140.2532  143.1207  163.1024 C.ar    1  UNL1        0.0206
@<TRIPOS>BOND
     1    19    20    1
     2    20     4    1
     3     4     5   ar
     4     5     6   ar
     5     6     7   ar
     6     7     8   ar
     7     8     9   ar
     8     9    10   ar
     9    10    11    1
    10    10    12   ar
    11    12    13   ar
    12     9    14    1
    13    14    15    1
    14    15    16    1
    15    16     3    1
    16     3     2    1
    17     2     1    1
    18     1    21    1
    19    21    22    1
    20    22    23    1
    21    23    24   ar
    22    24    25   ar
    23    25    26   ar
    24    26    29    1
    25    29    30   ar
    26    30    31   ar
    27    31    32   ar
    28    32    33   ar
    29    33    34   ar
    30    34    35   ar
    31    35    36    1
    32    35    37   ar
    33    37    38   ar
    34    38    39   ar
    35    26    27   ar
    36    27    28    1
    37    16    17    1
    38    17    18    1
    39    13     4   ar
    40    27    23   ar
    41    12     6   ar
    42    39    29   ar
    43    18     8    1
    44    39    33   ar
@<TRIPOS>MOLECULE
*****
 39 44 0 0 0
SMALL
GASTEIGER

@<TRIPOS>ATOM
      1 C         139.6538  142.5866  157.9622 C.3     1  UNL1        0.0135
      2 C         138.5544  142.4761  158.9767 C.3     1  UNL1        0.0182
      3 C         138.3388  141.1863  159.7116 C.3     1  UNL1        0.0721
      4 C         140.1272  140.6705  169.2235 C.ar    1  UNL1        0.2057
      5 N         140.3460  141.8694  168.3489 N.ar    1  UNL1       -0.2121
      6 C         139.9371  141.5052  166.9525 C.ar    1  UNL1        0.1187
      7 C         139.9332  142.2864  165.6719 C.ar    1  UNL1        0.0178
      8 C         139.4577  141.6435  164.4027 C.ar    1  UNL1       -0.0225
      9 C         138.9861  140.2197  164.4142 C.ar    1  UNL1       -0.0154
     10 C         138.9900  139.4385  165.6948 C.ar    1  UNL1        0.0664
     11 BR        138.5184  138.0146  165.7062 Br      1  UNL1       -0.0461
     12 C         139.4655  140.0813  166.9639 C.ar    1  UNL1        0.1701
     13 O         139.5830  139.5654  168.3675 O.2     1  UNL1       -0.4379
     14 C         138.4757  139.3942  163.2704 C.3     1  UNL1        0.0439
     15 C         138.3108  139.7890  161.8326 C.3     1  UNL1        0.0768
     16 N         138.6156  141.1064  161.1837 N.3     1  UNL1       -0.2721
     17 C         139.1605  142.3547  161.8121 C.3     1  UNL1        0.0768
     18 C         139.5353  142.5937  163.2447 C.3     1  UNL1        0.0434
     19 C         141.7501  140.9837  171.2281 C.3     1  UNL1        0.0102
     20 C         140.4040  140.5906  170.6956 C.3     1  UNL1        0.0853
     21 C         140.0108  143.9246  157.3859 C.3     1  UNL1        0.0652
     22 S         141.3157  144.5716  157.7443 S.3     1  UNL1       -0.0757
     23 C         142.1898  143.9625  158.8003 C.ar    1  UNL1        0.1932
     24 N         143.3357  143.0241  158.5629 N.ar    1  UNL1       -0.1221
     25 N         143.9255  142.6664  159.8949 N.ar    1  UNL1       -0.1282
     26 C         143.1441  143.3838  160.9555 C.ar    1  UNL1        0.1669
     27 N         142.0714  144.1848  160.2790 N.ar    1  UNL1       -0.2884
     28 C         141.0581  145.0553  160.9613 C.3     1  UNL1        0.1340
     29 C         143.3919  143.3127  162.4331 C.ar    1  UNL1        0.0374
     30 C         143.8825  144.5233  163.1704 C.ar    1  UNL1        0.0031
     31 C         144.1304  144.4522  164.6482 C.ar    1  UNL1        0.0016
     32 C         143.8876  143.1704  165.3885 C.ar    1  UNL1        0.0191
     33 C         143.3970  141.9598  164.6512 C.ar    1  UNL1        0.0810
     34 N         143.1542  140.6780  165.3915 N.ar    1  UNL1       -0.2497
     35 C         142.6636  139.4674  164.6543 C.ar    1  UNL1        0.0593
     36 C         142.4209  138.1856  165.3946 C.3     1  UNL1        0.0521
     37 C         142.4158  139.5385  163.1766 C.ar    1  UNL1        0.0147
     38 C         142.6585  140.8203  162.4362 C.ar    1  UNL1        0.0028
     39 C         143.1491  142.0309  163.1735 C.ar    1  UNL1        0.0206
@<TRIPOS>BOND
     1    19    20    1
     2    20     4    1
     3     4     5   ar
     4     5     6   ar
     5     6     7   ar
     6     7     8   ar
     7     8     9   ar
     8     9    10   ar
     9    10    11    1
    10    10    12   ar
    11    12    13   ar
    12     9    14    1
    13    14    15    1
    14    15    16    1
    15    16     3    1
    16     3     2    1
    17     2     1    1
    18     1    21    1
    19    21    22    1
    20    22    23    1
    21    23    24   ar
    22    24    25   ar
    23    25    26   ar
    24    26    29    1
    25    29    30   ar
    26    30    31   ar
    27    31    32   ar
    28    32    33   ar
    29    33    34   ar
    30    34    35   ar
    31    35    36    1
    32    35    37   ar
    33    37    38   ar
    34    38    39   ar
    35    26    27   ar
    36    27    28    1
    37    16    17    1
    38    17    18    1
    39    13     4   ar
    40    27    23   ar
    41    12     6   ar
    42    39    29   ar
    43    18     8    1
    44    39    33   ar
@<TRIPOS>MOLECULE
*****
 39 44 0 0 0
SMALL
GASTEIGER

@<TRIPOS>ATOM
      1 C         141.6771  143.9321  158.6047 C.3     1  UNL1        0.0135
      2 C         141.3352  145.3139  159.0778 C.3     1  UNL1        0.0182
      3 C         140.3422  145.5031  160.1861 C.3     1  UNL1        0.0721
      4 C         141.9442  141.4972  168.8652 C.ar    1  UNL1        0.2057
      5 N         140.6038  141.8453  168.2886 N.ar    1  UNL1       -0.2121
      6 C         140.8244  142.4411  166.9298 C.ar    1  UNL1        0.1187
      7 C         139.8713  142.9680  165.8982 C.ar    1  UNL1        0.0178
      8 C         140.3950  143.5150  164.6033 C.ar    1  UNL1       -0.0225
      9 C         141.8715  143.5350  164.3401 C.ar    1  UNL1       -0.0154
     10 C         142.8245  143.0082  165.3716 C.ar    1  UNL1        0.0664
     11 BR        144.3011  143.0283  165.1083 Br      1  UNL1       -0.0461
     12 C         142.3010  142.4612  166.6665 C.ar    1  UNL1        0.1701
     13 O         142.9930  141.8778  167.8627 O.2     1  UNL1       -0.4379
     14 C         142.5983  144.0323  163.1257 C.3     1  UNL1        0.0439
     15 C         142.0280  144.6322  161.8748 C.3     1  UNL1        0.0768
     16 N         140.5901  144.8831  161.5293 N.3     1  UNL1       -0.2721
     17 C         139.3673  144.5960  162.3492 C.3     1  UNL1        0.0768
     18 C         139.2805  143.9871  163.7173 C.3     1  UNL1        0.0434
     19 C         141.2689  141.1732  171.3530 C.3     1  UNL1        0.0102
     20 C         142.1921  140.8772  170.2084 C.3     1  UNL1        0.0853
     21 C         142.9915  143.6743  157.9297 C.3     1  UNL1        0.0652
     22 S         143.7521  142.4156  158.2250 S.3     1  UNL1       -0.0757
     23 C         143.2477  141.4614  159.2666 C.ar    1  UNL1        0.1932
     24 N         142.1701  140.4357  159.0747 N.ar    1  UNL1       -0.1221
     25 N         141.9886  139.7057  160.3725 N.ar    1  UNL1       -0.1282
     26 C         142.9542  140.2802  161.3663 C.ar    1  UNL1        0.1669
     27 N         143.7322  141.3652  160.6829 N.ar    1  UNL1       -0.2884
     28 C         144.8064  142.2065  161.3063 C.3     1  UNL1        0.1340
     29 C         143.1135  139.8458  162.7932 C.ar    1  UNL1        0.0374
     30 C         144.4806  139.5680  163.3444 C.ar    1  UNL1        0.0031
     31 C         144.6401  139.1337  164.7713 C.ar    1  UNL1        0.0016
     32 C         143.4322  138.9771  165.6469 C.ar    1  UNL1        0.0191
     33 C         142.0651  139.2549  165.0958 C.ar    1  UNL1        0.0810
     34 N         140.8574  139.0984  165.9715 N.ar    1  UNL1       -0.2497
     35 C         139.4903  139.3762  165.4204 C.ar    1  UNL1        0.0593
     36 C         138.2825  139.2196  166.2961 C.3     1  UNL1        0.0521
     37 C         139.3309  139.8105  163.9935 C.ar    1  UNL1        0.0147
     38 C         140.5387  139.9671  163.1178 C.ar    1  UNL1        0.0028
     39 C         141.9058  139.6893  163.6689 C.ar    1  UNL1        0.0206
@<TRIPOS>BOND
     1    19    20    1
     2    20     4    1
     3     4     5   ar
     4     5     6   ar
     5     6     7   ar
     6     7     8   ar
     7     8     9   ar
     8     9    10   ar
     9    10    11    1
    10    10    12   ar
    11    12    13   ar
    12     9    14    1
    13    14    15    1
    14    15    16    1
    15    16     3    1
    16     3     2    1
    17     2     1    1
    18     1    21    1
    19    21    22    1
    20    22    23    1
    21    23    24   ar
    22    24    25   ar
    23    25    26   ar
    24    26    29    1
    25    29    30   ar
    26    30    31   ar
    27    31    32   ar
    28    32    33   ar
    29    33    34   ar
    30    34    35   ar
    31    35    36    1
    32    35    37   ar
    33    37    38   ar
    34    38    39   ar
    35    26    27   ar
    36    27    28    1
    37    16    17    1
    38    17    18    1
    39    13     4   ar
    40    27    23   ar
    41    12     6   ar
    42    39    29   ar
    43    18     8    1
    44    39    33   ar
@<TRIPOS>MOLECULE
*****
 39 44 0 0 0
SMALL
GASTEIGER

@<TRIPOS>ATOM
      1 C         141.0889  138.1194  158.2288 C.3     1  UNL1        0.0135
      2 C         140.1214  139.0166  158.9422 C.3     1  UNL1        0.0182
      3 C         139.2037  138.4514  159.9856 C.3     1  UNL1        0.0721
      4 C         140.8089  140.2955  169.3645 C.ar    1  UNL1        0.2057
      5 N         139.4954  140.4278  168.6521 N.ar    1  UNL1       -0.2121
      6 C         139.7051  140.0418  167.2179 C.ar    1  UNL1        0.1187
      7 C         138.7684  139.9800  166.0479 C.ar    1  UNL1        0.0178
      8 C         139.2749  139.5474  164.7038 C.ar    1  UNL1       -0.0225
      9 C         140.7178  139.1766  164.5298 C.ar    1  UNL1       -0.0154
     10 C         141.6544  139.2384  165.6997 C.ar    1  UNL1        0.0664
     11 BR        143.0974  138.8675  165.5257 Br      1  UNL1       -0.0461
     12 C         141.1481  139.6709  167.0438 C.ar    1  UNL1        0.1701
     13 O         141.8302  139.8278  168.3705 O.2     1  UNL1       -0.4379
     14 C         141.4233  138.7223  163.2864 C.3     1  UNL1        0.0439
     15 C         140.8599  138.5265  161.9100 C.3     1  UNL1        0.0768
     16 N         139.4522  138.7368  161.4371 N.3     1  UNL1       -0.2721
     17 C         138.2598  139.1947  162.2237 C.3     1  UNL1        0.0768
     18 C         138.1809  139.5555  163.6775 C.3     1  UNL1        0.0434
     19 C         141.9202  141.7411  171.2152 C.3     1  UNL1        0.0102
     20 C         141.0573  140.5809  170.8160 C.3     1  UNL1        0.0853
     21 C         141.9159  138.6563  157.0985 C.3     1  UNL1        0.0652
     22 S         143.2277  139.3265  157.3814 S.3     1  UNL1       -0.0757
     23 C         143.3113  140.4010  158.4247 C.ar    1  UNL1        0.1932
     24 N         143.0726  141.8653  158.2034 N.ar    1  UNL1       -0.1221
     25 N         143.2620  142.5691  159.5144 N.ar    1  UNL1       -0.1282
     26 C         143.6179  141.5398  160.5459 C.ar    1  UNL1        0.1669
     27 N         143.6484  140.1999  159.8724 N.ar    1  UNL1       -0.2884
     28 C         143.9610  138.8889  160.5310 C.3     1  UNL1        0.1340
     29 C         143.8947  141.8041  161.9962 C.ar    1  UNL1        0.0374
     30 C         145.2858  141.6475  162.5349 C.ar    1  UNL1        0.0031
     31 C         145.5627  141.9118  163.9853 C.ar    1  UNL1        0.0016
     32 C         144.4483  142.3328  164.8969 C.ar    1  UNL1        0.0191
     33 C         143.0572  142.4894  164.3582 C.ar    1  UNL1        0.0810
     34 N         141.9429  142.9104  165.2699 N.ar    1  UNL1       -0.2497
     35 C         140.5518  143.0670  164.7313 C.ar    1  UNL1        0.0593
     36 C         139.4375  143.4880  165.6429 C.3     1  UNL1        0.0521
     37 C         140.2750  142.8027  163.2809 C.ar    1  UNL1        0.0147
     38 C         141.3893  142.3817  162.3693 C.ar    1  UNL1        0.0028
     39 C         142.7804  142.2251  162.9079 C.ar    1  UNL1        0.0206
@<TRIPOS>BOND
     1    19    20    1
     2    20     4    1
     3     4     5   ar
     4     5     6   ar
     5     6     7   ar
     6     7     8   ar
     7     8     9   ar
     8     9    10   ar
     9    10    11    1
    10    10    12   ar
    11    12    13   ar
    12     9    14    1
    13    14    15    1
    14    15    16    1
    15    16     3    1
    16     3     2    1
    17     2     1    1
    18     1    21    1
    19    21    22    1
    20    22    23    1
    21    23    24   ar
    22    24    25   ar
    23    25    26   ar
    24    26    29    1
    25    29    30   ar
    26    30    31   ar
    27    31    32   ar
    28    32    33   ar
    29    33    34   ar
    30    34    35   ar
    31    35    36    1
    32    35    37   ar
    33    37    38   ar
    34    38    39   ar
    35    26    27   ar
    36    27    28    1
    37    16    17    1
    38    17    18    1
    39    13     4   ar
    40    27    23   ar
    41    12     6   ar
    42    39    29   ar
    43    18     8    1
    44    39    33   ar
@<TRIPOS>MOLECULE
*****
 39 44 0 0 0
SMALL
GASTEIGER

@<TRIPOS>ATOM
      1 C         139.7982  142.9943  157.5626 C.3     1  UNL1        0.0135
      2 C         139.1375  141.8552  158.2809 C.3     1  UNL1        0.0182
      3 C         138.0983  142.1301  159.3272 C.3     1  UNL1        0.0721
      4 C         140.0144  140.3189  168.6540 C.ar    1  UNL1        0.2057
      5 N         139.0747  139.5424  167.7800 N.ar    1  UNL1       -0.2121
      6 C         139.0850  140.1685  166.4170 C.ar    1  UNL1        0.1187
      7 C         138.3551  139.8294  165.1512 C.ar    1  UNL1        0.0178
      8 C         138.5714  140.6540  163.9169 C.ar    1  UNL1       -0.0225
      9 C         139.5175  141.8175  163.9485 C.ar    1  UNL1       -0.0154
     10 C         140.2474  142.1565  165.2143 C.ar    1  UNL1        0.0664
     11 BR        141.1936  143.3201  165.2458 Br      1  UNL1       -0.0461
     12 C         140.0312  141.3320  166.4486 C.ar    1  UNL1        0.1701
     13 O         140.6056  141.4250  167.8311 O.2     1  UNL1       -0.4379
     14 C         139.8756  142.7621  162.8396 C.3     1  UNL1        0.0439
     15 C         139.3759  142.7764  161.4253 C.3     1  UNL1        0.0768
     16 N         138.3949  141.8498  160.7707 N.3     1  UNL1       -0.2721
     17 C         137.6711  140.6798  161.3685 C.3     1  UNL1        0.0768
     18 C         137.7496  140.1476  162.7687 C.3     1  UNL1        0.0434
     19 C         140.7559  141.1501  171.0013 C.3     1  UNL1        0.0102
     20 C         140.3110  140.0386  170.0975 C.3     1  UNL1        0.0853
     21 C         141.0565  142.7591  156.7809 C.3     1  UNL1        0.0652
     22 S         142.3622  143.3034  157.2798 S.3     1  UNL1       -0.0757
     23 C         142.6618  143.3043  158.7496 C.ar    1  UNL1        0.1932
     24 N         142.3752  144.4228  159.7071 N.ar    1  UNL1       -0.1221
     25 N         142.8368  143.9967  161.0691 N.ar    1  UNL1       -0.1282
     26 C         143.4088  142.6149  160.9534 C.ar    1  UNL1        0.1669
     27 N         143.3006  142.1870  159.5199 N.ar    1  UNL1       -0.2884
     28 C         143.7520  140.8724  158.9556 C.3     1  UNL1        0.1340
     29 C         143.9874  141.8035  162.0745 C.ar    1  UNL1        0.0374
     30 C         145.2852  142.2134  162.7049 C.ar    1  UNL1        0.0031
     31 C         145.8639  141.4020  163.8260 C.ar    1  UNL1        0.0016
     32 C         145.1445  140.1806  164.3167 C.ar    1  UNL1        0.0191
     33 C         143.8467  139.7706  163.6863 C.ar    1  UNL1        0.0810
     34 N         143.1274  138.5492  164.1769 N.ar    1  UNL1       -0.2497
     35 C         141.8295  138.1392  163.5466 C.ar    1  UNL1        0.0593
     36 C         141.1102  136.9177  164.0372 C.3     1  UNL1        0.0521
     37 C         141.2510  138.9506  162.4255 C.ar    1  UNL1        0.0147
     38 C         141.9702  140.1720  161.9348 C.ar    1  UNL1        0.0028
     39 C         143.2681  140.5820  162.5652 C.ar    1  UNL1        0.0206
@<TRIPOS>BOND
     1    19    20    1
     2    20     4    1
     3     4     5   ar
     4     5     6   ar
     5     6     7   ar
     6     7     8   ar
     7     8     9   ar
     8     9    10   ar
     9    10    11    1
    10    10    12   ar
    11    12    13   ar
    12     9    14    1
    13    14    15    1
    14    15    16    1
    15    16     3    1
    16     3     2    1
    17     2     1    1
    18     1    21    1
    19    21    22    1
    20    22    23    1
    21    23    24   ar
    22    24    25   ar
    23    25    26   ar
    24    26    29    1
    25    29    30   ar
    26    30    31   ar
    27    31    32   ar
    28    32    33   ar
    29    33    34   ar
    30    34    35   ar
    31    35    36    1
    32    35    37   ar
    33    37    38   ar
    34    38    39   ar
    35    26    27   ar
    36    27    28    1
    37    16    17    1
    38    17    18    1
    39    13     4   ar
    40    27    23   ar
    41    12     6   ar
    42    39    29   ar
    43    18     8    1
    44    39    33   ar
@<TRIPOS>MOLECULE
*****
 39 44 0 0 0
SMALL
GASTEIGER

@<TRIPOS>ATOM
      1 C         144.8117  139.2155  164.3001 C.3     1  UNL1        0.0135
      2 C         145.5109  140.5224  164.0696 C.3     1  UNL1        0.0182
      3 C         144.7898  141.8135  164.3210 C.3     1  UNL1        0.0721
      4 C         139.8988  146.1107  157.1409 C.ar    1  UNL1        0.2057
      5 N         141.0197  145.1270  156.9789 N.ar    1  UNL1       -0.2121
      6 C         141.4813  144.7210  158.3471 C.ar    1  UNL1        0.1187
      7 C         142.5546  143.7787  158.8056 C.ar    1  UNL1        0.0178
      8 C         142.7924  143.5691  160.2718 C.ar    1  UNL1       -0.0225
      9 C         141.9570  144.3017  161.2793 C.ar    1  UNL1       -0.0154
     10 C         140.8837  145.2440  160.8208 C.ar    1  UNL1        0.0664
     11 BR        140.0482  145.9766  161.8284 Br      1  UNL1       -0.0461
     12 C         140.6459  145.4536  159.3547 C.ar    1  UNL1        0.1701
     13 O         139.6678  146.3125  158.6092 O.2     1  UNL1       -0.4379
     14 C         142.0278  144.2386  162.7763 C.3     1  UNL1        0.0439
     15 C         142.9517  143.4271  163.6355 C.3     1  UNL1        0.0768
     16 N         144.0328  142.4786  163.2098 N.3     1  UNL1       -0.2721
     17 C         144.4572  142.1070  161.8198 C.3     1  UNL1        0.0768
     18 C         143.9051  142.5923  160.5123 C.3     1  UNL1        0.0434
     19 C         138.3963  145.9448  155.0278 C.3     1  UNL1        0.0102
     20 C         139.1419  146.7757  156.0297 C.3     1  UNL1        0.0853
     21 C         144.5650  138.7335  165.6989 C.3     1  UNL1        0.0652
     22 S         143.1674  138.4325  166.1529 S.3     1  UNL1       -0.0757
     23 C         142.0003  138.8142  165.2913 C.ar    1  UNL1        0.1932
     24 N         141.2712  137.9092  164.3429 N.ar    1  UNL1       -0.1221
     25 N         140.1778  138.7036  163.6923 N.ar    1  UNL1       -0.1282
     26 C         140.2312  140.0996  164.2385 C.ar    1  UNL1        0.1669
     27 N         141.3575  140.1680  165.2267 N.ar    1  UNL1       -0.2884
     28 C         141.7689  141.3777  166.0125 C.3     1  UNL1        0.1340
     29 C         139.3184  141.2290  163.8625 C.ar    1  UNL1        0.0374
     30 C         138.5898  141.9913  164.9292 C.ar    1  UNL1        0.0031
     31 C         137.6770  143.1207  164.5533 C.ar    1  UNL1        0.0016
     32 C         137.4928  143.4877  163.1105 C.ar    1  UNL1        0.0191
     33 C         138.2215  142.7253  162.0438 C.ar    1  UNL1        0.0810
     34 N         138.0373  143.0923  160.6011 N.ar    1  UNL1       -0.2497
     35 C         138.7659  142.3300  159.5344 C.ar    1  UNL1        0.0593
     36 C         138.5817  142.6970  158.0917 C.3     1  UNL1        0.0521
     37 C         139.6787  141.2007  159.9104 C.ar    1  UNL1        0.0147
     38 C         139.8628  140.8337  161.3531 C.ar    1  UNL1        0.0028
     39 C         139.1343  141.5960  162.4198 C.ar    1  UNL1        0.0206
@<TRIPOS>BOND
     1    19    20    1
     2    20     4    1
     3     4     5   ar
     4     5     6   ar
     5     6     7   ar
     6     7     8   ar
     7     8     9   ar
     8     9    10   ar
     9    10    11    1
    10    10    12   ar
    11    12    13   ar
    12     9    14    1
    13    14    15    1
    14    15    16    1
    15    16     3    1
    16     3     2    1
    17     2     1    1
    18     1    21    1
    19    21    22    1
    20    22    23    1
    21    23    24   ar
    22    24    25   ar
    23    25    26   ar
    24    26    29    1
    25    29    30   ar
    26    30    31   ar
    27    31    32   ar
    28    32    33   ar
    29    33    34   ar
    30    34    35   ar
    31    35    36    1
    32    35    37   ar
    33    37    38   ar
    34    38    39   ar
    35    26    27   ar
    36    27    28    1
    37    16    17    1
    38    17    18    1
    39    13     4   ar
    40    27    23   ar
    41    12     6   ar
    42    39    29   ar
    43    18     8    1
    44    39    33   ar
@<TRIPOS>MOLECULE
*****
 39 44 0 0 0
SMALL
GASTEIGER

@<TRIPOS>ATOM
      1 C         139.0727  142.7956  156.9185 C.3     1  UNL1        0.0135
      2 C         139.1618  141.4701  157.6152 C.3     1  UNL1        0.0182
      3 C         138.0558  141.0256  158.5259 C.3     1  UNL1        0.0721
      4 C         139.6164  140.3361  168.0669 C.ar    1  UNL1        0.2057
      5 N         139.1139  139.2404  167.1742 N.ar    1  UNL1       -0.2121
      6 C         139.0219  139.7844  165.7794 C.ar    1  UNL1        0.1187
      7 C         138.5899  139.1608  164.4853 C.ar    1  UNL1        0.0178
      8 C         138.6036  139.9692  163.2218 C.ar    1  UNL1       -0.0225
      9 C         139.0492  141.4011  163.2525 C.ar    1  UNL1       -0.0154
     10 C         139.4812  142.0247  164.5464 C.ar    1  UNL1        0.0664
     11 BR        139.9269  143.4566  164.5770 Br      1  UNL1       -0.0461
     12 C         139.4676  141.2163  165.8100 C.ar    1  UNL1        0.1701
     13 O         139.8350  141.5573  167.2237 O.2     1  UNL1       -0.4379
     14 C         139.1383  142.3774  162.1171 C.3     1  UNL1        0.0439
     15 C         138.8036  142.1627  160.6706 C.3     1  UNL1        0.0768
     16 N         138.2974  140.9189  160.0025 N.3     1  UNL1       -0.2721
     17 C         138.0006  139.5825  160.6156 C.3     1  UNL1        0.0768
     18 C         138.1369  139.1598  162.0483 C.3     1  UNL1        0.0434
     19 C         141.1881  140.6202  170.1160 C.3     1  UNL1        0.0102
     20 C         139.8579  140.2294  169.5435 C.3     1  UNL1        0.0853
     21 C         139.5666  144.0364  157.6014 C.3     1  UNL1        0.0652
     22 S         141.0331  144.3515  157.6156 S.3     1  UNL1       -0.0757
     23 C         141.9167  143.7618  158.6747 C.ar    1  UNL1        0.1932
     24 N         142.9830  142.7291  158.4589 N.ar    1  UNL1       -0.1221
     25 N         143.6143  142.4303  159.7863 N.ar    1  UNL1       -0.1282
     26 C         142.9382  143.2784  160.8225 C.ar    1  UNL1        0.1669
     27 N         141.8890  144.1012  160.1356 N.ar    1  UNL1       -0.2884
     28 C         140.9730  145.0900  160.7938 C.3     1  UNL1        0.1340
     29 C         143.2556  143.2998  162.2884 C.ar    1  UNL1        0.0374
     30 C         143.7743  144.5549  162.9252 C.ar    1  UNL1        0.0031
     31 C         144.0918  144.5764  164.3911 C.ar    1  UNL1        0.0016
     32 C         143.8905  143.3425  165.2202 C.ar    1  UNL1        0.0191
     33 C         143.3718  142.0874  164.5833 C.ar    1  UNL1        0.0810
     34 N         143.1705  140.8537  165.4124 N.ar    1  UNL1       -0.2497
     35 C         142.6518  139.5985  164.7757 C.ar    1  UNL1        0.0593
     36 C         142.4506  138.3648  165.6047 C.3     1  UNL1        0.0521
     37 C         142.3344  139.5771  163.3098 C.ar    1  UNL1        0.0147
     38 C         142.5357  140.8109  162.4807 C.ar    1  UNL1        0.0028
     39 C         143.0544  142.0660  163.1175 C.ar    1  UNL1        0.0206
@<TRIPOS>BOND
     1    19    20    1
     2    20     4    1
     3     4     5   ar
     4     5     6   ar
     5     6     7   ar
     6     7     8   ar
     7     8     9   ar
     8     9    10   ar
     9    10    11    1
    10    10    12   ar
    11    12    13   ar
    12     9    14    1
    13    14    15    1
    14    15    16    1
    15    16     3    1
    16     3     2    1
    17     2     1    1
    18     1    21    1
    19    21    22    1
    20    22    23    1
    21    23    24   ar
    22    24    25   ar
    23    25    26   ar
    24    26    29    1
    25    29    30   ar
    26    30    31   ar
    27    31    32   ar
    28    32    33   ar
    29    33    34   ar
    30    34    35   ar
    31    35    36    1
    32    35    37   ar
    33    37    38   ar
    34    38    39   ar
    35    26    27   ar
    36    27    28    1
    37    16    17    1
    38    17    18    1
    39    13     4   ar
    40    27    23   ar
    41    12     6   ar
    42    39    29   ar
    43    18     8    1
    44    39    33   ar
@<TRIPOS>MOLECULE
*****
 39 44 0 0 0
SMALL
GASTEIGER

@<TRIPOS>ATOM
      1 C         142.4187  142.7161  157.2631 C.3     1  UNL1        0.0135
      2 C         143.3073  143.4622  158.2137 C.3     1  UNL1        0.0182
      3 C         144.0954  142.7141  159.2478 C.3     1  UNL1        0.0721
      4 C         140.6747  141.8735  168.2774 C.ar    1  UNL1        0.2057
      5 N         142.0966  142.1617  167.8964 N.ar    1  UNL1       -0.2121
      6 C         142.1758  142.2045  166.3992 C.ar    1  UNL1        0.1187
      7 C         143.3208  142.4480  165.4612 C.ar    1  UNL1        0.0178
      8 C         143.0927  142.4298  163.9787 C.ar    1  UNL1       -0.0225
      9 C         141.7198  142.1682  163.4343 C.ar    1  UNL1       -0.0154
     10 C         140.5748  141.9247  164.3722 C.ar    1  UNL1        0.0664
     11 BR        139.2019  141.6630  163.8277 Br      1  UNL1       -0.0461
     12 C         140.8028  141.9429  165.8547 C.ar    1  UNL1        0.1701
     13 O         139.8751  141.7383  167.0155 O.2     1  UNL1       -0.4379
     14 C         141.2776  142.1067  162.0022 C.3     1  UNL1        0.0439
     15 C         142.0994  142.2918  160.7609 C.3     1  UNL1        0.0768
     16 N         143.5660  142.5840  160.6452 N.3     1  UNL1       -0.2721
     17 C         144.5733  142.7633  161.7421 C.3     1  UNL1        0.0768
     18 C         144.3627  142.6947  163.2257 C.3     1  UNL1        0.0434
     19 C         139.9166  142.9700  170.5074 C.3     1  UNL1        0.0102
     20 C         140.1453  141.7434  169.6748 C.3     1  UNL1        0.0853
     21 C         142.9489  141.5281  156.5165 C.3     1  UNL1        0.0652
     22 S         142.2078  140.2246  156.5575 S.3     1  UNL1       -0.0757
     23 C         142.1514  139.4337  157.8309 C.ar    1  UNL1        0.1932
     24 N         143.1472  138.4028  158.2733 N.ar    1  UNL1       -0.1221
     25 N         142.7006  137.8668  159.6011 N.ar    1  UNL1       -0.1282
     26 C         141.4288  138.5665  159.9794 C.ar    1  UNL1        0.1669
     27 N         141.0894  139.5348  158.8853 N.ar    1  UNL1       -0.2884
     28 C         139.8973  140.4447  158.8516 C.3     1  UNL1        0.1340
     29 C         140.6356  138.3379  161.2318 C.ar    1  UNL1        0.0374
     30 C         139.1716  138.0233  161.1455 C.ar    1  UNL1        0.0031
     31 C         138.3783  137.7947  162.3980 C.ar    1  UNL1        0.0016
     32 C         139.0494  137.8807  163.7368 C.ar    1  UNL1        0.0191
     33 C         140.5135  138.1953  163.8231 C.ar    1  UNL1        0.0810
     34 N         141.1844  138.2814  165.1619 N.ar    1  UNL1       -0.2497
     35 C         142.6484  138.5960  165.2484 C.ar    1  UNL1        0.0593
     36 C         143.3194  138.6820  166.5872 C.3     1  UNL1        0.0521
     37 C         143.4416  138.8246  163.9959 C.ar    1  UNL1        0.0147
     38 C         142.7706  138.7386  162.6571 C.ar    1  UNL1        0.0028
     39 C         141.3066  138.4239  162.5707 C.ar    1  UNL1        0.0206
@<TRIPOS>BOND
     1    19    20    1
     2    20     4    1
     3     4     5   ar
     4     5     6   ar
     5     6     7   ar
     6     7     8   ar
     7     8     9   ar
     8     9    10   ar
     9    10    11    1
    10    10    12   ar
    11    12    13   ar
    12     9    14    1
    13    14    15    1
    14    15    16    1
    15    16     3    1
    16     3     2    1
    17     2     1    1
    18     1    21    1
    19    21    22    1
    20    22    23    1
    21    23    24   ar
    22    24    25   ar
    23    25    26   ar
    24    26    29    1
    25    29    30   ar
    26    30    31   ar
    27    31    32   ar
    28    32    33   ar
    29    33    34   ar
    30    34    35   ar
    31    35    36    1
    32    35    37   ar
    33    37    38   ar
    34    38    39   ar
    35    26    27   ar
    36    27    28    1
    37    16    17    1
    38    17    18    1
    39    13     4   ar
    40    27    23   ar
    41    12     6   ar
    42    39    29   ar
    43    18     8    1
    44    39    33   ar
@<TRIPOS>MOLECULE
*****
 39 44 0 0 0
SMALL
GASTEIGER

@<TRIPOS>ATOM
      1 C         140.4250  143.8341  157.2745 C.3     1  UNL1        0.0135
      2 C         140.3573  145.1455  157.9996 C.3     1  UNL1        0.0182
      3 C         141.3943  145.4886  159.0278 C.3     1  UNL1        0.0721
      4 C         141.1889  141.2238  167.7289 C.ar    1  UNL1        0.2057
      5 N         140.3898  142.4243  167.3163 N.ar    1  UNL1       -0.2121
      6 C         140.7324  142.7416  165.8909 C.ar    1  UNL1        0.1187
      7 C         140.2545  143.8155  164.9589 C.ar    1  UNL1        0.0178
      8 C         140.7875  143.8849  163.5585 C.ar    1  UNL1       -0.0225
      9 C         141.7982  142.8805  163.0901 C.ar    1  UNL1       -0.0154
     10 C         142.2761  141.8067  164.0220 C.ar    1  UNL1        0.0664
     11 BR        143.2869  140.8023  163.5535 Br      1  UNL1       -0.0461
     12 C         141.7432  141.7372  165.4225 C.ar    1  UNL1        0.1701
     13 O         142.0253  140.7992  166.5584 O.2     1  UNL1       -0.4379
     14 C         142.4533  142.7702  161.7452 C.3     1  UNL1        0.0439
     15 C         142.2594  143.6373  160.5365 C.3     1  UNL1        0.0768
     16 N         141.3625  144.8285  160.3744 N.3     1  UNL1       -0.2721
     17 C         140.4380  145.4471  161.3807 C.3     1  UNL1        0.0768
     18 C         140.1821  145.0272  162.7978 C.3     1  UNL1        0.0434
     19 C         142.0600  139.4007  169.3622 C.3     1  UNL1        0.0102
     20 C         141.1571  140.5637  169.0755 C.3     1  UNL1        0.0853
     21 C         139.1941  143.2691  156.6300 C.3     1  UNL1        0.0652
     22 S         138.2933  142.3549  157.4064 S.3     1  UNL1       -0.0757
     23 C         138.6343  141.9893  158.8207 C.ar    1  UNL1        0.1932
     24 N         138.3891  142.8366  160.0339 N.ar    1  UNL1       -0.1221
     25 N         138.8837  142.0833  161.2330 N.ar    1  UNL1       -0.1282
     26 C         139.4346  140.7705  160.7608 C.ar    1  UNL1        0.1669
     27 N         139.2805  140.7124  159.2699 N.ar    1  UNL1       -0.2884
     28 C         139.6992  139.5768  158.3837 C.3     1  UNL1        0.1340
     29 C         140.0344  139.7031  161.6274 C.ar    1  UNL1        0.0374
     30 C         141.0982  138.8001  161.0771 C.ar    1  UNL1        0.0031
     31 C         141.6981  137.7327  161.9436 C.ar    1  UNL1        0.0016
     32 C         141.2340  137.5683  163.3606 C.ar    1  UNL1        0.0191
     33 C         140.1701  138.4713  163.9109 C.ar    1  UNL1        0.0810
     34 N         139.7060  138.3069  165.3277 N.ar    1  UNL1       -0.2497
     35 C         138.6422  139.2098  165.8781 C.ar    1  UNL1        0.0593
     36 C         138.1782  139.0454  167.2950 C.3     1  UNL1        0.0521
     37 C         138.0425  140.2772  165.0115 C.ar    1  UNL1        0.0147
     38 C         138.5065  140.4416  163.5946 C.ar    1  UNL1        0.0028
     39 C         139.5703  139.5387  163.0443 C.ar    1  UNL1        0.0206
@<TRIPOS>BOND
     1    19    20    1
     2    20     4    1
     3     4     5   ar
     4     5     6   ar
     5     6     7   ar
     6     7     8   ar
     7     8     9   ar
     8     9    10   ar
     9    10    11    1
    10    10    12   ar
    11    12    13   ar
    12     9    14    1
    13    14    15    1
    14    15    16    1
    15    16     3    1
    16     3     2    1
    17     2     1    1
    18     1    21    1
    19    21    22    1
    20    22    23    1
    21    23    24   ar
    22    24    25   ar
    23    25    26   ar
    24    26    29    1
    25    29    30   ar
    26    30    31   ar
    27    31    32   ar
    28    32    33   ar
    29    33    34   ar
    30    34    35   ar
    31    35    36    1
    32    35    37   ar
    33    37    38   ar
    34    38    39   ar
    35    26    27   ar
    36    27    28    1
    37    16    17    1
    38    17    18    1
    39    13     4   ar
    40    27    23   ar
    41    12     6   ar
    42    39    29   ar
    43    18     8    1
    44    39    33   ar
