@<TRIPOS>MOLECULE
*****
 33 36 0 0 0
SMALL
GASTEIGER

@<TRIPOS>ATOM
      1 N         140.8653  138.2046  164.4876 N.3     1  UNL1       -0.2680
      2 C         141.9606  138.5872  165.4384 C.3     1  UNL1        0.0897
      3 C         143.2704  139.0918  164.9096 C.3     1  UNL1        0.0897
      4 N         143.4850  139.2139  163.4301 N.3     1  UNL1       -0.2679
      5 C         142.3898  138.8313  162.4793 C.3     1  UNL1        0.0897
      6 C         141.0799  138.3267  163.0079 C.3     1  UNL1        0.0897
      7 C         139.5554  137.6999  165.0162 C.3     1  UNL1        0.1064
      8 C         138.5254  138.6687  165.5168 C.3     1  UNL1        0.1483
      9 O         137.5528  138.2474  166.5782 O.3     1  UNL1       -0.3786
     10 H         136.9604  138.9869  166.7858 H       1  UNL1        0.2108
     11 C         139.8260  140.9355  166.9900 C.3     1  UNL1        0.0306
     12 C         139.1183  141.1922  165.6926 C.ar    1  UNL1       -0.0238
     13 C         138.4680  140.0588  164.9559 C.ar    1  UNL1        0.0015
     14 C         137.7603  140.3154  163.6586 C.ar    1  UNL1       -0.0020
     15 C         137.7029  141.7054  163.0977 C.ar    1  UNL1        0.0060
     16 C         138.3532  142.8388  163.8343 C.ar    1  UNL1        0.0748
     17 C         139.0609  142.5822  165.1317 C.ar    1  UNL1        0.0233
     18 C         139.6051  143.8885  165.6291 C.3     1  UNL1        0.2352
     19 O         139.2337  144.9524  164.6391 O.3     1  UNL1       -0.4404
     20 C         138.4600  144.3037  163.5298 C.2     1  UNL1        0.3413
     21 O         137.8927  144.9980  162.3273 O.2     1  UNL1       -0.2449
     22 C         144.7949  139.7185  162.9014 C.3     1  UNL1        0.1080
     23 C         145.0524  141.1940  162.8195 C.3     1  UNL1        0.1660
     24 O         146.3381  141.7612  163.3441 O.3     1  UNL1       -0.3771
     25 H         146.8865  141.0444  163.6995 H       1  UNL1        0.2109
     26 C         144.0241  142.1022  162.2130 C.ar    1  UNL1        0.0871
     27 C         143.0188  142.7881  163.0899 C.ar    1  UNL1        0.0179
     28 C         141.9905  143.6963  162.4835 C.ar    1  UNL1        0.0131
     29 C         141.9675  143.9186  161.0003 C.ar    1  UNL1        0.0875
     30 C         142.9728  143.2327  160.1234 C.ar    1  UNL1        0.1088
     31 N         144.0011  142.3245  160.7298 N.ar    1  UNL1       -0.2450
     32 C         140.9392  144.8269  160.3937 C.1     1  UNL1        0.1020
     33 N         139.9110  145.7352  159.7873 N.1     1  UNL1       -0.1908
@<TRIPOS>BOND
     1    11    12    1
     2    12    13   ar
     3    13     8    1
     4     8     9    1
     5     8     7    1
     6     7     1    1
     7     1     2    1
     8     2     3    1
     9     3     4    1
    10     4    22    1
    11    22    23    1
    12    23    24    1
    13    23    26    1
    14    26    27   ar
    15    27    28   ar
    16    28    29   ar
    17    29    32    1
    18    32    33    3
    19    29    30   ar
    20    30    31   ar
    21     4     5    1
    22     5     6    1
    23    13    14   ar
    24    14    15   ar
    25    15    16   ar
    26    16    17   ar
    27    17    18    1
    28    18    19    1
    29    19    20    1
    30    20    21    2
    31    17    12   ar
    32     6     1    1
    33    20    16    1
    34    31    26   ar
    35     9    10    1
    36    24    25    1
@<TRIPOS>MOLECULE
*****
 33 36 0 0 0
SMALL
GASTEIGER

@<TRIPOS>ATOM
      1 N         144.8573  141.4255  163.5067 N.3     1  UNL1       -0.2680
      2 C         144.3722  141.7159  162.1173 C.3     1  UNL1        0.0897
      3 C         143.6983  140.6401  161.3182 C.3     1  UNL1        0.0897
      4 N         143.5095  139.2741  161.9084 N.3     1  UNL1       -0.2679
      5 C         143.9946  138.9838  163.2978 C.3     1  UNL1        0.0897
      6 C         144.6685  140.0595  164.0970 C.3     1  UNL1        0.0897
      7 C         145.5312  142.5012  164.3059 C.3     1  UNL1        0.1064
      8 C         144.7081  143.5304  165.0224 C.3     1  UNL1        0.1483
      9 O         145.3000  144.3018  166.1645 O.3     1  UNL1       -0.3786
     10 H         144.6398  144.9210  166.5131 H       1  UNL1        0.2108
     11 C         142.4550  142.0353  166.3218 C.3     1  UNL1        0.0306
     12 C         142.1664  143.0405  165.2465 C.ar    1  UNL1       -0.0238
     13 C         143.2929  143.7881  164.5967 C.ar    1  UNL1        0.0015
     14 C         143.0044  144.7932  163.5215 C.ar    1  UNL1       -0.0020
     15 C         141.5894  145.0510  163.0959 C.ar    1  UNL1        0.0060
     16 C         140.4628  144.3034  163.7455 C.ar    1  UNL1        0.0748
     17 C         140.7513  143.2982  164.8209 C.ar    1  UNL1        0.0233
     18 C         139.4449  142.7186  165.2762 C.3     1  UNL1        0.2352
     19 O         138.3490  143.3656  164.4823 O.3     1  UNL1       -0.4404
     20 C         138.9781  144.3451  163.5363 C.2     1  UNL1        0.3413
     21 O         138.2502  145.2137  162.5536 O.2     1  UNL1       -0.2449
     22 C         142.8356  138.1984  161.1092 C.3     1  UNL1        0.1080
     23 C         141.3382  138.1429  161.0388 C.3     1  UNL1        0.1660
     24 O         140.6519  138.0819  159.7064 O.3     1  UNL1       -0.3771
     25 H         141.3165  138.0864  158.9998 H       1  UNL1        0.2109
     26 C         140.5273  138.1483  162.3006 C.ar    1  UNL1        0.0871
     27 C         140.8829  137.2207  163.4245 C.ar    1  UNL1        0.0179
     28 C         140.0720  137.2260  164.6864 C.ar    1  UNL1        0.0131
     29 C         138.9056  138.1589  164.8245 C.ar    1  UNL1        0.0875
     30 C         138.5501  139.0865  163.7006 C.ar    1  UNL1        0.1088
     31 N         139.3609  139.0812  162.4387 N.ar    1  UNL1       -0.2450
     32 C         138.0946  138.1644  166.0864 C.1     1  UNL1        0.1020
     33 N         137.2838  138.1698  167.3483 N.1     1  UNL1       -0.1908
@<TRIPOS>BOND
     1    11    12    1
     2    12    13   ar
     3    13     8    1
     4     8     9    1
     5     8     7    1
     6     7     1    1
     7     1     2    1
     8     2     3    1
     9     3     4    1
    10     4    22    1
    11    22    23    1
    12    23    24    1
    13    23    26    1
    14    26    27   ar
    15    27    28   ar
    16    28    29   ar
    17    29    32    1
    18    32    33    3
    19    29    30   ar
    20    30    31   ar
    21     4     5    1
    22     5     6    1
    23    13    14   ar
    24    14    15   ar
    25    15    16   ar
    26    16    17   ar
    27    17    18    1
    28    18    19    1
    29    19    20    1
    30    20    21    2
    31    17    12   ar
    32     6     1    1
    33    20    16    1
    34    31    26   ar
    35     9    10    1
    36    24    25    1
@<TRIPOS>MOLECULE
*****
 33 36 0 0 0
SMALL
GASTEIGER

@<TRIPOS>ATOM
      1 N         140.5463  142.8264  161.1967 N.3     1  UNL1       -0.2680
      2 C         141.9350  142.8229  161.7638 C.3     1  UNL1        0.0897
      3 C         142.8621  141.6809  161.4701 C.3     1  UNL1        0.0897
      4 N         142.4006  140.5424  160.6094 N.3     1  UNL1       -0.2679
      5 C         141.0119  140.5459  160.0424 C.3     1  UNL1        0.0897
      6 C         140.0847  141.6879  160.3360 C.3     1  UNL1        0.0897
      7 C         139.6191  143.9683  161.4904 C.3     1  UNL1        0.1064
      8 C         138.5087  143.7964  162.4839 C.3     1  UNL1        0.1483
      9 O         137.4142  144.8185  162.5700 O.3     1  UNL1       -0.3786
     10 H         136.7818  144.5580  163.2577 H       1  UNL1        0.2108
     11 C         140.0598  143.8426  165.0514 C.3     1  UNL1        0.0306
     12 C         139.2682  142.6253  164.6753 C.ar    1  UNL1       -0.0238
     13 C         138.4926  142.6021  163.3916 C.ar    1  UNL1        0.0015
     14 C         137.7010  141.3849  163.0154 C.ar    1  UNL1       -0.0020
     15 C         137.6848  140.1907  163.9230 C.ar    1  UNL1        0.0060
     16 C         138.4604  140.2138  165.2067 C.ar    1  UNL1        0.0748
     17 C         139.2520  141.4311  165.5829 C.ar    1  UNL1        0.0233
     18 C         139.9137  141.1643  166.9023 C.3     1  UNL1        0.2352
     19 O         139.5310  139.7821  167.3416 O.3     1  UNL1       -0.4404
     20 C         138.6328  139.1946  166.2937 C.2     1  UNL1        0.3413
     21 O         138.0154  137.8280  166.3269 O.2     1  UNL1       -0.2449
     22 C         143.3277  139.4004  160.3158 C.3     1  UNL1        0.1080
     23 C         143.3635  138.2098  161.2275 C.3     1  UNL1        0.1660
     24 O         143.4962  136.8300  160.6542 O.3     1  UNL1       -0.3771
     25 H         143.5463  136.8852  159.6871 H       1  UNL1        0.2109
     26 C         143.2665  138.3989  162.7123 C.ar    1  UNL1        0.0871
     27 C         142.0288  137.9708  163.4436 C.ar    1  UNL1        0.0179
     28 C         141.9318  138.1599  164.9284 C.ar    1  UNL1        0.0131
     29 C         143.0724  138.7772  165.6820 C.ar    1  UNL1        0.0875
     30 C         144.3101  139.2053  164.9507 C.ar    1  UNL1        0.1088
     31 N         144.4072  139.0162  163.4659 N.ar    1  UNL1       -0.2450
     32 C         142.9755  138.9664  167.1669 C.1     1  UNL1        0.1020
     33 N         142.8785  139.1556  168.6518 N.1     1  UNL1       -0.1908
@<TRIPOS>BOND
     1    11    12    1
     2    12    13   ar
     3    13     8    1
     4     8     9    1
     5     8     7    1
     6     7     1    1
     7     1     2    1
     8     2     3    1
     9     3     4    1
    10     4    22    1
    11    22    23    1
    12    23    24    1
    13    23    26    1
    14    26    27   ar
    15    27    28   ar
    16    28    29   ar
    17    29    32    1
    18    32    33    3
    19    29    30   ar
    20    30    31   ar
    21     4     5    1
    22     5     6    1
    23    13    14   ar
    24    14    15   ar
    25    15    16   ar
    26    16    17   ar
    27    17    18    1
    28    18    19    1
    29    19    20    1
    30    20    21    2
    31    17    12   ar
    32     6     1    1
    33    20    16    1
    34    31    26   ar
    35     9    10    1
    36    24    25    1
@<TRIPOS>MOLECULE
*****
 33 36 0 0 0
SMALL
GASTEIGER

@<TRIPOS>ATOM
      1 N         144.2105  141.4970  164.9905 N.3     1  UNL1       -0.2680
      2 C         143.5475  142.4247  165.9651 C.3     1  UNL1        0.0897
      3 C         142.5935  141.8816  166.9873 C.3     1  UNL1        0.0897
      4 N         142.3025  140.4109  167.0349 N.3     1  UNL1       -0.2679
      5 C         142.9655  139.4832  166.0604 C.3     1  UNL1        0.0897
      6 C         143.9195  140.0262  165.0381 C.3     1  UNL1        0.0897
      7 C         145.1645  142.0400  163.9683 C.3     1  UNL1        0.1064
      8 C         144.6747  142.3818  162.5923 C.3     1  UNL1        0.1483
      9 O         145.6408  142.4454  161.4466 O.3     1  UNL1       -0.3786
     10 H         145.1642  142.6774  160.6343 H       1  UNL1        0.2108
     11 C         143.5572  145.1039  163.1767 C.3     1  UNL1        0.0306
     12 C         142.6601  144.0212  162.6542 C.ar    1  UNL1       -0.0238
     13 C         143.2188  142.6601  162.3620 C.ar    1  UNL1        0.0015
     14 C         142.3218  141.5775  161.8396 C.ar    1  UNL1       -0.0020
     15 C         140.8659  141.8558  161.6093 C.ar    1  UNL1        0.0060
     16 C         140.3071  143.2168  161.9015 C.ar    1  UNL1        0.0748
     17 C         141.2042  144.2995  162.4240 C.ar    1  UNL1        0.0233
     18 C         140.3752  145.5343  162.6194 C.3     1  UNL1        0.2352
     19 O         138.9658  145.2146  162.2178 O.3     1  UNL1       -0.4404
     20 C         138.9237  143.7824  161.7741 C.2     1  UNL1        0.3413
     21 O         137.7111  143.0451  161.2882 O.2     1  UNL1       -0.2449
     22 C         141.3485  139.8679  168.0572 C.3     1  UNL1        0.1080
     23 C         139.8760  139.8455  167.7718 C.3     1  UNL1        0.1660
     24 O         138.8922  139.8693  168.9038 O.3     1  UNL1       -0.3771
     25 H         139.3705  139.8986  169.7472 H       1  UNL1        0.2109
     26 C         139.3874  139.7993  166.3544 C.ar    1  UNL1        0.0871
     27 C         138.9701  141.0636  165.6634 C.ar    1  UNL1        0.0179
     28 C         138.4815  141.0175  164.2460 C.ar    1  UNL1        0.0131
     29 C         138.4102  139.7071  163.5195 C.ar    1  UNL1        0.0875
     30 C         138.8276  138.4428  164.2105 C.ar    1  UNL1        0.1088
     31 N         139.3162  138.4889  165.6279 N.ar    1  UNL1       -0.2450
     32 C         137.9216  139.6609  162.1020 C.1     1  UNL1        0.1020
     33 N         137.4330  139.6147  160.6846 N.1     1  UNL1       -0.1908
@<TRIPOS>BOND
     1    11    12    1
     2    12    13   ar
     3    13     8    1
     4     8     9    1
     5     8     7    1
     6     7     1    1
     7     1     2    1
     8     2     3    1
     9     3     4    1
    10     4    22    1
    11    22    23    1
    12    23    24    1
    13    23    26    1
    14    26    27   ar
    15    27    28   ar
    16    28    29   ar
    17    29    32    1
    18    32    33    3
    19    29    30   ar
    20    30    31   ar
    21     4     5    1
    22     5     6    1
    23    13    14   ar
    24    14    15   ar
    25    15    16   ar
    26    16    17   ar
    27    17    18    1
    28    18    19    1
    29    19    20    1
    30    20    21    2
    31    17    12   ar
    32     6     1    1
    33    20    16    1
    34    31    26   ar
    35     9    10    1
    36    24    25    1
@<TRIPOS>MOLECULE
*****
 33 36 0 0 0
SMALL
GASTEIGER

@<TRIPOS>ATOM
      1 N         142.4102  137.9915  162.5259 N.3     1  UNL1       -0.2680
      2 C         141.0557  137.7578  161.9253 C.3     1  UNL1        0.0897
      3 C         139.8532  137.6322  162.8131 C.3     1  UNL1        0.0897
      4 N         140.0051  137.7402  164.3014 N.3     1  UNL1       -0.2679
      5 C         141.3596  137.9739  164.9021 C.3     1  UNL1        0.0897
      6 C         142.5622  138.0996  164.0144 C.3     1  UNL1        0.0897
      7 C         143.6127  138.1171  161.6382 C.3     1  UNL1        0.1064
      8 C         144.0491  139.4678  161.1533 C.3     1  UNL1        0.1483
      9 O         144.3561  139.6799  159.7004 O.3     1  UNL1       -0.3786
     10 H         144.6214  140.6019  159.5572 H       1  UNL1        0.2108
     11 C         142.0932  141.7409  161.0651 C.3     1  UNL1        0.0306
     12 C         143.2004  141.7431  162.0771 C.ar    1  UNL1       -0.0238
     13 C         144.1784  140.6065  162.1212 C.ar    1  UNL1        0.0015
     14 C         145.2856  140.6086  163.1331 C.ar    1  UNL1       -0.0020
     15 C         145.4149  141.7473  164.1010 C.ar    1  UNL1        0.0060
     16 C         144.4370  142.8838  164.0569 C.ar    1  UNL1        0.0748
     17 C         143.3297  142.8817  163.0450 C.ar    1  UNL1        0.0233
     18 C         142.5216  144.1303  163.2395 C.3     1  UNL1        0.2352
     19 O         143.1294  144.9041  164.3717 O.3     1  UNL1       -0.4404
     20 C         144.3131  144.1337  164.8769 C.2     1  UNL1        0.3413
     21 O         145.2147  144.5417  166.0041 O.2     1  UNL1       -0.2449
     22 C         138.8026  137.6146  165.1891 C.3     1  UNL1        0.1080
     23 C         138.1492  138.8448  165.7456 C.3     1  UNL1        0.1660
     24 O         137.3473  138.7612  167.0105 O.3     1  UNL1       -0.3771
     25 H         137.3522  137.8477  167.3366 H       1  UNL1        0.2109
     26 C         138.2977  140.1586  165.0372 C.ar    1  UNL1        0.0871
     27 C         139.1312  141.2480  165.6443 C.ar    1  UNL1        0.0179
     28 C         139.2798  142.5618  164.9359 C.ar    1  UNL1        0.0131
     29 C         138.5948  142.7862  163.6204 C.ar    1  UNL1        0.0875
     30 C         137.7613  141.6969  163.0133 C.ar    1  UNL1        0.1088
     31 N         137.6128  140.3831  163.7217 N.ar    1  UNL1       -0.2450
     32 C         138.7434  144.1001  162.9120 C.1     1  UNL1        0.1020
     33 N         138.8919  145.4138  162.2034 N.1     1  UNL1       -0.1908
@<TRIPOS>BOND
     1    11    12    1
     2    12    13   ar
     3    13     8    1
     4     8     9    1
     5     8     7    1
     6     7     1    1
     7     1     2    1
     8     2     3    1
     9     3     4    1
    10     4    22    1
    11    22    23    1
    12    23    24    1
    13    23    26    1
    14    26    27   ar
    15    27    28   ar
    16    28    29   ar
    17    29    32    1
    18    32    33    3
    19    29    30   ar
    20    30    31   ar
    21     4     5    1
    22     5     6    1
    23    13    14   ar
    24    14    15   ar
    25    15    16   ar
    26    16    17   ar
    27    17    18    1
    28    18    19    1
    29    19    20    1
    30    20    21    2
    31    17    12   ar
    32     6     1    1
    33    20    16    1
    34    31    26   ar
    35     9    10    1
    36    24    25    1
@<TRIPOS>MOLECULE
*****
 33 36 0 0 0
SMALL
GASTEIGER

@<TRIPOS>ATOM
      1 N         137.7750  142.8244  163.2700 N.3     1  UNL1       -0.2680
      2 C         137.6420  141.4320  163.8118 C.3     1  UNL1        0.0897
      3 C         137.8682  140.2528  162.9127 C.3     1  UNL1        0.0897
      4 N         138.2274  140.4659  161.4721 N.3     1  UNL1       -0.2679
      5 C         138.3604  141.8584  160.9304 C.3     1  UNL1        0.0897
      6 C         138.1342  143.0376  161.8293 C.3     1  UNL1        0.0897
      7 C         137.5488  144.0037  164.1690 C.3     1  UNL1        0.1064
      8 C         138.6763  144.5404  165.0000 C.3     1  UNL1        0.1483
      9 O         138.4090  145.5878  166.0400 O.3     1  UNL1       -0.3786
     10 H         139.2393  145.8228  166.4831 H       1  UNL1        0.2108
     11 C         140.4066  145.7359  162.8605 C.3     1  UNL1        0.0306
     12 C         140.9364  144.6275  163.7213 C.ar    1  UNL1       -0.0238
     13 C         140.0712  144.0297  164.7911 C.ar    1  UNL1        0.0015
     14 C         140.6009  142.9214  165.6518 C.ar    1  UNL1       -0.0020
     15 C         141.9957  142.4107  165.4429 C.ar    1  UNL1        0.0060
     16 C         142.8609  143.0085  164.3732 C.ar    1  UNL1        0.0748
     17 C         142.3312  144.1168  163.5124 C.ar    1  UNL1        0.0233
     18 C         143.4084  144.5072  162.5443 C.3     1  UNL1        0.2352
     19 O         144.6039  143.6400  162.8068 O.3     1  UNL1       -0.4404
     20 C         144.2655  142.7138  163.9371 C.2     1  UNL1        0.3413
     21 O         145.1725  141.6752  164.5276 O.2     1  UNL1       -0.2449
     22 C         138.4536  139.2867  160.5731 C.3     1  UNL1        0.1080
     23 C         139.8016  138.6307  160.5213 C.3     1  UNL1        0.1660
     24 O         140.3244  138.0928  159.2223 O.3     1  UNL1       -0.3771
     25 H         139.6722  138.2494  158.5216 H       1  UNL1        0.2109
     26 C         140.6267  138.5125  161.7683 C.ar    1  UNL1        0.0871
     27 C         141.6844  139.5333  162.0672 C.ar    1  UNL1        0.0179
     28 C         142.5096  139.4152  163.3143 C.ar    1  UNL1        0.0131
     29 C         142.2770  138.2765  164.2625 C.ar    1  UNL1        0.0875
     30 C         141.2192  137.2557  163.9636 C.ar    1  UNL1        0.1088
     31 N         140.3941  137.3738  162.7165 N.ar    1  UNL1       -0.2450
     32 C         143.1021  138.1583  165.5096 C.1     1  UNL1        0.1020
     33 N         143.9273  138.0401  166.7567 N.1     1  UNL1       -0.1908
@<TRIPOS>BOND
     1    11    12    1
     2    12    13   ar
     3    13     8    1
     4     8     9    1
     5     8     7    1
     6     7     1    1
     7     1     2    1
     8     2     3    1
     9     3     4    1
    10     4    22    1
    11    22    23    1
    12    23    24    1
    13    23    26    1
    14    26    27   ar
    15    27    28   ar
    16    28    29   ar
    17    29    32    1
    18    32    33    3
    19    29    30   ar
    20    30    31   ar
    21     4     5    1
    22     5     6    1
    23    13    14   ar
    24    14    15   ar
    25    15    16   ar
    26    16    17   ar
    27    17    18    1
    28    18    19    1
    29    19    20    1
    30    20    21    2
    31    17    12   ar
    32     6     1    1
    33    20    16    1
    34    31    26   ar
    35     9    10    1
    36    24    25    1
@<TRIPOS>MOLECULE
*****
 33 36 0 0 0
SMALL
GASTEIGER

@<TRIPOS>ATOM
      1 N         138.2577  140.9711  164.4080 N.3     1  UNL1       -0.2680
      2 C         137.9690  141.1267  162.9443 C.3     1  UNL1        0.0897
      3 C         138.0670  142.4778  162.3000 C.3     1  UNL1        0.0897
      4 N         138.4538  143.6732  163.1194 N.3     1  UNL1       -0.2679
      5 C         138.7425  143.5176  164.5831 C.3     1  UNL1        0.0897
      6 C         138.6445  142.1666  165.2274 C.3     1  UNL1        0.0897
      7 C         138.1597  139.6201  165.0523 C.3     1  UNL1        0.1064
      8 C         139.3194  139.0753  165.8322 C.3     1  UNL1        0.1483
      9 O         140.0523  137.8633  165.3383 O.3     1  UNL1       -0.3786
     10 H         140.7687  137.6451  165.9548 H       1  UNL1        0.2108
     11 C         142.0019  140.4079  166.0019 C.3     1  UNL1        0.0306
     12 C         141.0874  140.4088  167.1910 C.ar    1  UNL1       -0.0238
     13 C         139.7461  139.7425  167.1062 C.ar    1  UNL1        0.0015
     14 C         138.8318  139.7434  168.2952 C.ar    1  UNL1       -0.0020
     15 C         139.2585  140.4105  169.5691 C.ar    1  UNL1        0.0060
     16 C         140.5997  141.0768  169.6539 C.ar    1  UNL1        0.0748
     17 C         141.5142  141.0759  168.4649 C.ar    1  UNL1        0.0233
     18 C         142.7676  141.8078  168.8435 C.3     1  UNL1        0.2352
     19 O         142.6277  142.2610  170.2665 O.3     1  UNL1       -0.4404
     20 C         141.2879  141.8092  170.7674 C.2     1  UNL1        0.3413
     21 O         140.7337  142.0479  172.1407 O.2     1  UNL1       -0.2449
     22 C         138.5518  145.0242  162.4751 C.3     1  UNL1        0.1080
     23 C         139.8907  145.6787  162.3049 C.3     1  UNL1        0.1660
     24 O         139.9746  147.1342  161.9522 O.3     1  UNL1       -0.3771
     25 H         139.0796  147.4995  161.8719 H       1  UNL1        0.2109
     26 C         141.1457  144.8776  162.4872 C.ar    1  UNL1        0.0871
     27 C         142.0329  145.1325  163.6696 C.ar    1  UNL1        0.0179
     28 C         143.2879  144.3315  163.8520 C.ar    1  UNL1        0.0131
     29 C         143.6557  143.2756  162.8522 C.ar    1  UNL1        0.0875
     30 C         142.7685  143.0207  161.6699 C.ar    1  UNL1        0.1088
     31 N         141.5135  143.8217  161.4874 N.ar    1  UNL1       -0.2450
     32 C         144.9108  142.4745  163.0346 C.1     1  UNL1        0.1020
     33 N         146.1658  141.6735  163.2169 N.1     1  UNL1       -0.1908
@<TRIPOS>BOND
     1    11    12    1
     2    12    13   ar
     3    13     8    1
     4     8     9    1
     5     8     7    1
     6     7     1    1
     7     1     2    1
     8     2     3    1
     9     3     4    1
    10     4    22    1
    11    22    23    1
    12    23    24    1
    13    23    26    1
    14    26    27   ar
    15    27    28   ar
    16    28    29   ar
    17    29    32    1
    18    32    33    3
    19    29    30   ar
    20    30    31   ar
    21     4     5    1
    22     5     6    1
    23    13    14   ar
    24    14    15   ar
    25    15    16   ar
    26    16    17   ar
    27    17    18    1
    28    18    19    1
    29    19    20    1
    30    20    21    2
    31    17    12   ar
    32     6     1    1
    33    20    16    1
    34    31    26   ar
    35     9    10    1
    36    24    25    1
@<TRIPOS>MOLECULE
*****
 33 36 0 0 0
SMALL
GASTEIGER

@<TRIPOS>ATOM
      1 N         139.2109  139.5967  161.5449 N.3     1  UNL1       -0.2680
      2 C         140.4443  139.8562  160.7315 C.3     1  UNL1        0.0897
      3 C         140.6600  141.2019  160.1050 C.3     1  UNL1        0.0897
      4 N         139.6425  142.2880  160.2918 N.3     1  UNL1       -0.2679
      5 C         138.4092  142.0286  161.1052 C.3     1  UNL1        0.0897
      6 C         138.1933  140.6829  161.7317 C.3     1  UNL1        0.0897
      7 C         138.9950  138.2510  162.1714 C.3     1  UNL1        0.1064
      8 C         139.8762  137.7981  163.2976 C.3     1  UNL1        0.1483
      9 O         140.9621  136.7950  163.0436 O.3     1  UNL1       -0.3786
     10 H         141.4342  136.6130  163.8711 H       1  UNL1        0.2108
     11 C         141.9249  139.6292  164.5018 C.3     1  UNL1        0.0306
     12 C         140.6957  139.2638  165.2802 C.ar    1  UNL1       -0.0238
     13 C         139.6713  138.3482  164.6781 C.ar    1  UNL1        0.0015
     14 C         138.4423  137.9829  165.4563 C.ar    1  UNL1       -0.0020
     15 C         138.2374  138.5330  166.8367 C.ar    1  UNL1        0.0060
     16 C         139.2617  139.4485  167.4388 C.ar    1  UNL1        0.0748
     17 C         140.4909  139.8140  166.6605 C.ar    1  UNL1        0.0233
     18 C         141.3207  140.7317  167.5085 C.3     1  UNL1        0.2352
     19 O         140.6044  140.9334  168.8109 O.3     1  UNL1       -0.4404
     20 C         139.3319  140.1404  168.7678 C.2     1  UNL1        0.3413
     21 O         138.3092  140.0544  169.8617 O.2     1  UNL1       -0.2449
     22 C         139.8584  143.6337  159.6653 C.3     1  UNL1        0.1080
     23 C         140.2210  144.8105  160.5219 C.3     1  UNL1        0.1660
     24 O         139.5810  146.1443  160.2737 O.3     1  UNL1       -0.3771
     25 H         138.9626  146.0727  159.5298 H       1  UNL1        0.2109
     26 C         141.2234  144.6535  161.6267 C.ar    1  UNL1        0.0871
     27 C         140.7931  144.7999  163.0561 C.ar    1  UNL1        0.0179
     28 C         141.7954  144.6429  164.1609 C.ar    1  UNL1        0.0131
     29 C         143.2281  144.3396  163.8363 C.ar    1  UNL1        0.0875
     30 C         143.6584  144.1932  162.4068 C.ar    1  UNL1        0.1088
     31 N         142.6560  144.3502  161.3020 N.ar    1  UNL1       -0.2450
     32 C         144.2306  144.1826  164.9410 C.1     1  UNL1        0.1020
     33 N         145.2330  144.0257  166.0458 N.1     1  UNL1       -0.1908
@<TRIPOS>BOND
     1    11    12    1
     2    12    13   ar
     3    13     8    1
     4     8     9    1
     5     8     7    1
     6     7     1    1
     7     1     2    1
     8     2     3    1
     9     3     4    1
    10     4    22    1
    11    22    23    1
    12    23    24    1
    13    23    26    1
    14    26    27   ar
    15    27    28   ar
    16    28    29   ar
    17    29    32    1
    18    32    33    3
    19    29    30   ar
    20    30    31   ar
    21     4     5    1
    22     5     6    1
    23    13    14   ar
    24    14    15   ar
    25    15    16   ar
    26    16    17   ar
    27    17    18    1
    28    18    19    1
    29    19    20    1
    30    20    21    2
    31    17    12   ar
    32     6     1    1
    33    20    16    1
    34    31    26   ar
    35     9    10    1
    36    24    25    1
@<TRIPOS>MOLECULE
*****
 33 36 0 0 0
SMALL
GASTEIGER

@<TRIPOS>ATOM
      1 N         141.0660  139.8347  166.4120 N.3     1  UNL1       -0.2680
      2 C         141.7756  141.1321  166.6635 C.3     1  UNL1        0.0897
      3 C         143.0991  141.4017  166.0114 C.3     1  UNL1        0.0897
      4 N         143.7132  140.3740  165.1077 N.3     1  UNL1       -0.2679
      5 C         143.0037  139.0766  164.8561 C.3     1  UNL1        0.0897
      6 C         141.6801  138.8069  165.5082 C.3     1  UNL1        0.0897
      7 C         139.7424  139.5650  167.0641 C.3     1  UNL1        0.1064
      8 C         138.5079  139.4215  166.2242 C.3     1  UNL1        0.1483
      9 O         137.3400  138.6317  166.7362 O.3     1  UNL1       -0.3786
     10 H         136.6303  138.6385  166.0751 H       1  UNL1        0.2108
     11 C         138.7604  137.7478  163.7473 C.3     1  UNL1        0.0306
     12 C         138.5676  139.2310  163.6337 C.ar    1  UNL1       -0.0238
     13 C         138.4413  140.0679  164.8722 C.ar    1  UNL1        0.0015
     14 C         138.2485  141.5511  164.7587 C.ar    1  UNL1       -0.0020
     15 C         138.1819  142.1975  163.4067 C.ar    1  UNL1        0.0060
     16 C         138.3081  141.3606  162.1683 C.ar    1  UNL1        0.0748
     17 C         138.5009  139.8774  162.2818 C.ar    1  UNL1        0.0233
     18 C         138.5933  139.3144  160.8945 C.3     1  UNL1        0.2352
     19 O         138.4575  140.4498  159.9236 O.3     1  UNL1       -0.4404
     20 C         138.2813  141.7144  160.7109 C.2     1  UNL1        0.3413
     21 O         138.1085  143.0910  160.1407 O.2     1  UNL1       -0.2449
     22 C         145.0368  140.6437  164.4555 C.3     1  UNL1        0.1080
     23 C         145.1540  141.7133  163.4104 C.3     1  UNL1        0.1660
     24 O         146.4592  141.9322  162.7044 O.3     1  UNL1       -0.3771
     25 H         147.1175  141.3034  163.0395 H       1  UNL1        0.2109
     26 C         143.9660  142.5639  163.0713 C.ar    1  UNL1        0.0871
     27 C         142.8731  142.0140  162.2034 C.ar    1  UNL1        0.0179
     28 C         141.6851  142.8646  161.8642 C.ar    1  UNL1        0.0131
     29 C         141.5899  144.2651  162.3931 C.ar    1  UNL1        0.0875
     30 C         142.6827  144.8149  163.2610 C.ar    1  UNL1        0.1088
     31 N         143.8708  143.9644  163.6001 N.ar    1  UNL1       -0.2450
     32 C         140.4018  145.1158  162.0540 C.1     1  UNL1        0.1020
     33 N         139.2138  145.9664  161.7148 N.1     1  UNL1       -0.1908
@<TRIPOS>BOND
     1    11    12    1
     2    12    13   ar
     3    13     8    1
     4     8     9    1
     5     8     7    1
     6     7     1    1
     7     1     2    1
     8     2     3    1
     9     3     4    1
    10     4    22    1
    11    22    23    1
    12    23    24    1
    13    23    26    1
    14    26    27   ar
    15    27    28   ar
    16    28    29   ar
    17    29    32    1
    18    32    33    3
    19    29    30   ar
    20    30    31   ar
    21     4     5    1
    22     5     6    1
    23    13    14   ar
    24    14    15   ar
    25    15    16   ar
    26    16    17   ar
    27    17    18    1
    28    18    19    1
    29    19    20    1
    30    20    21    2
    31    17    12   ar
    32     6     1    1
    33    20    16    1
    34    31    26   ar
    35     9    10    1
    36    24    25    1
