@<TRIPOS>MOLECULE
*****
 31 34 0 0 0
SMALL
GASTEIGER

@<TRIPOS>ATOM
      1 N         141.4150  144.1419  160.9198 N.am    1  UNL1       -0.2756
      2 C         142.6555  144.3479  161.7377 C.3     1  UNL1        0.1151
      3 C         140.1965  143.5312  161.5461 C.2     1  UNL1        0.2490
      4 O         138.9561  143.3252  160.7282 O.2     1  UNL1       -0.2699
      5 C         140.3389  146.7837  154.6657 C.ar    1  UNL1       -0.0065
      6 C         139.3724  147.4011  155.6325 C.ar    1  UNL1       -0.0033
      7 C         139.3943  146.9962  157.0767 C.ar    1  UNL1       -0.0048
      8 C         140.3827  145.9739  157.5541 C.ar    1  UNL1       -0.0245
      9 C         141.3492  145.3565  156.5873 C.ar    1  UNL1       -0.0263
     10 C         141.3273  145.7614  155.1431 C.ar    1  UNL1       -0.0075
     11 C         142.3377  144.3342  157.0647 C.3     1  UNL1        0.0277
     12 C         142.3596  143.9293  158.5089 C.3     1  UNL1        0.0248
     13 C         141.3931  144.5468  159.4756 C.3     1  UNL1        0.0804
     14 C         140.4046  145.5691  158.9982 C.3     1  UNL1        0.0458
     15 C         140.3169  147.1885  153.2216 C.3     1  UNL1        0.0992
     16 C         142.2048  148.4579  151.9668 C.3     1  UNL1        0.0899
     17 N         140.9539  148.4776  152.7943 N.3     1  UNL1       -0.2665
     18 C         140.3398  149.7864  153.1945 C.3     1  UNL1        0.0899
     19 C         140.2185  143.1263  162.9902 C.ar    1  UNL1        0.0536
     20 C         139.8752  144.1258  164.0547 C.ar    1  UNL1        0.0045
     21 C         139.8972  143.7210  165.4988 C.ar    1  UNL1        0.0001
     22 C         140.2623  142.3166  165.8786 C.ar    1  UNL1        0.0000
     23 C         140.6055  141.3170  164.8141 C.ar    1  UNL1        0.0001
     24 C         140.5836  141.7219  163.3700 C.ar    1  UNL1        0.0045
     25 C         140.2842  141.9117  167.3227 C.ar    1  UNL1        0.0001
     26 C         140.2368  140.4595  167.6953 C.ar    1  UNL1        0.0023
     27 C         140.2587  140.0547  169.1395 C.ar    1  UNL1        0.0296
     28 C         140.3281  141.1020  170.2110 C.ar    1  UNL1        0.1401
     29 F         140.3500  140.6971  171.6552 F       1  UNL1       -0.2042
     30 C         140.3756  142.5542  169.8384 C.ar    1  UNL1        0.0296
     31 C         140.3536  142.9590  168.3943 C.ar    1  UNL1        0.0023
@<TRIPOS>BOND
     1    16    17    1
     2    17    18    1
     3    17    15    1
     4    15     5    1
     5     5     6   ar
     6     6     7   ar
     7     7     8   ar
     8     8     9   ar
     9     9    10   ar
    10     9    11    1
    11    11    12    1
    12    12    13    1
    13    13     1    1
    14     1     2    1
    15     1     3   am
    16     3     4    2
    17     3    19    1
    18    19    20   ar
    19    20    21   ar
    20    21    22   ar
    21    22    25    1
    22    25    26   ar
    23    26    27   ar
    24    27    28   ar
    25    28    29    1
    26    28    30   ar
    27    30    31   ar
    28    22    23   ar
    29    23    24   ar
    30    13    14    1
    31    10     5   ar
    32    24    19   ar
    33    14     8    1
    34    31    25   ar
@<TRIPOS>MOLECULE
*****
 31 34 0 0 0
SMALL
GASTEIGER

@<TRIPOS>ATOM
      1 N         140.8460  139.4160  160.6195 N.am    1  UNL1       -0.2756
      2 C         141.7061  140.5946  160.9679 C.3     1  UNL1        0.1151
      3 C         139.9842  138.7800  161.6696 C.2     1  UNL1        0.2490
      4 O         139.1241  137.6015  161.3212 O.2     1  UNL1       -0.2699
      5 C         142.0042  136.4122  154.5462 C.ar    1  UNL1       -0.0065
      6 C         143.1534  136.1208  155.4652 C.ar    1  UNL1       -0.0033
      7 C         143.1515  136.6633  156.8637 C.ar    1  UNL1       -0.0048
      8 C         142.0006  137.4972  157.3431 C.ar    1  UNL1       -0.0245
      9 C         140.8515  137.7885  156.4242 C.ar    1  UNL1       -0.0263
     10 C         140.8533  137.2460  155.0257 C.ar    1  UNL1       -0.0075
     11 C         139.7004  138.6224  156.9036 C.3     1  UNL1        0.0277
     12 C         139.6986  139.1649  158.3021 C.3     1  UNL1        0.0248
     13 C         140.8478  138.8735  159.2211 C.3     1  UNL1        0.0804
     14 C         141.9988  138.0397  158.7416 C.3     1  UNL1        0.0458
     15 C         142.0060  135.8697  153.1478 C.3     1  UNL1        0.0992
     16 C         141.9651  133.2915  153.4662 C.3     1  UNL1        0.0899
     17 N         141.3849  134.5350  152.8603 N.3     1  UNL1       -0.2665
     18 C         140.1834  134.4437  151.9668 C.3     1  UNL1        0.0899
     19 C         139.9824  139.3225  163.0681 C.ar    1  UNL1        0.0536
     20 C         138.9640  140.3463  163.4741 C.ar    1  UNL1        0.0045
     21 C         138.9622  140.8888  164.8725 C.ar    1  UNL1        0.0001
     22 C         139.9787  140.4075  165.8650 C.ar    1  UNL1        0.0000
     23 C         140.9971  139.3838  165.4590 C.ar    1  UNL1        0.0001
     24 C         140.9989  138.8413  164.0605 C.ar    1  UNL1        0.0045
     25 C         139.9769  140.9500  167.2634 C.ar    1  UNL1        0.0001
     26 C         140.5395  142.3127  167.5400 C.ar    1  UNL1        0.0023
     27 C         140.5377  142.8552  168.9385 C.ar    1  UNL1        0.0296
     28 C         139.9733  142.0350  170.0604 C.ar    1  UNL1        0.1401
     29 F         139.9714  142.5775  171.4588 F       1  UNL1       -0.2042
     30 C         139.4106  140.6724  169.7838 C.ar    1  UNL1        0.0296
     31 C         139.4124  140.1299  168.3853 C.ar    1  UNL1        0.0023
@<TRIPOS>BOND
     1    16    17    1
     2    17    18    1
     3    17    15    1
     4    15     5    1
     5     5     6   ar
     6     6     7   ar
     7     7     8   ar
     8     8     9   ar
     9     9    10   ar
    10     9    11    1
    11    11    12    1
    12    12    13    1
    13    13     1    1
    14     1     2    1
    15     1     3   am
    16     3     4    2
    17     3    19    1
    18    19    20   ar
    19    20    21   ar
    20    21    22   ar
    21    22    25    1
    22    25    26   ar
    23    26    27   ar
    24    27    28   ar
    25    28    29    1
    26    28    30   ar
    27    30    31   ar
    28    22    23   ar
    29    23    24   ar
    30    13    14    1
    31    10     5   ar
    32    24    19   ar
    33    14     8    1
    34    31    25   ar
@<TRIPOS>MOLECULE
*****
 31 34 0 0 0
SMALL
GASTEIGER

@<TRIPOS>ATOM
      1 N         143.0968  140.5619  160.5071 N.am    1  UNL1       -0.2756
      2 C         142.2187  141.6951  160.9488 C.3     1  UNL1        0.1151
      3 C         143.4995  139.4995  161.4864 C.2     1  UNL1        0.2490
      4 O         144.3775  138.3664  161.0448 O.2     1  UNL1       -0.2699
      5 C         146.1268  141.1544  154.3657 C.ar    1  UNL1       -0.0065
      6 C         146.7804  142.1004  155.3289 C.ar    1  UNL1       -0.0033
      7 C         146.3051  142.1711  156.7499 C.ar    1  UNL1       -0.0048
      8 C         145.1762  141.2958  157.2076 C.ar    1  UNL1       -0.0245
      9 C         144.5227  140.3498  156.2443 C.ar    1  UNL1       -0.0263
     10 C         144.9980  140.2791  154.8234 C.ar    1  UNL1       -0.0075
     11 C         143.3938  139.4744  156.7020 C.3     1  UNL1        0.0277
     12 C         142.9185  139.5451  158.1229 C.3     1  UNL1        0.0248
     13 C         143.5721  140.4912  159.0862 C.3     1  UNL1        0.0804
     14 C         144.7009  141.3665  158.6285 C.3     1  UNL1        0.0458
     15 C         146.6021  141.0837  152.9447 C.3     1  UNL1        0.0992
     16 C         149.1235  141.5340  152.5089 C.3     1  UNL1        0.0899
     17 N         147.6965  141.9950  152.4737 N.3     1  UNL1       -0.2665
     18 C         147.3639  143.3673  151.9675 C.3     1  UNL1        0.0899
     19 C         143.0242  139.5702  162.9074 C.ar    1  UNL1        0.0536
     20 C         143.8267  140.3182  163.9303 C.ar    1  UNL1        0.0045
     21 C         143.3514  140.3889  165.3513 C.ar    1  UNL1        0.0001
     22 C         142.0736  139.7116  165.7493 C.ar    1  UNL1        0.0000
     23 C         141.2710  138.9637  164.7263 C.ar    1  UNL1        0.0001
     24 C         141.7463  138.8930  163.3054 C.ar    1  UNL1        0.0045
     25 C         141.5982  139.7824  167.1702 C.ar    1  UNL1        0.0001
     26 C         142.5429  139.4723  168.2933 C.ar    1  UNL1        0.0023
     27 C         142.0676  139.5430  169.7143 C.ar    1  UNL1        0.0296
     28 C         140.6476  139.9238  170.0121 C.ar    1  UNL1        0.1401
     29 F         140.1723  139.9945  171.4330 F       1  UNL1       -0.2042
     30 C         139.7030  140.2338  168.8890 C.ar    1  UNL1        0.0296
     31 C         140.1783  140.1631  167.4680 C.ar    1  UNL1        0.0023
@<TRIPOS>BOND
     1    16    17    1
     2    17    18    1
     3    17    15    1
     4    15     5    1
     5     5     6   ar
     6     6     7   ar
     7     7     8   ar
     8     8     9   ar
     9     9    10   ar
    10     9    11    1
    11    11    12    1
    12    12    13    1
    13    13     1    1
    14     1     2    1
    15     1     3   am
    16     3     4    2
    17     3    19    1
    18    19    20   ar
    19    20    21   ar
    20    21    22   ar
    21    22    25    1
    22    25    26   ar
    23    26    27   ar
    24    27    28   ar
    25    28    29    1
    26    28    30   ar
    27    30    31   ar
    28    22    23   ar
    29    23    24   ar
    30    13    14    1
    31    10     5   ar
    32    24    19   ar
    33    14     8    1
    34    31    25   ar
@<TRIPOS>MOLECULE
*****
 31 34 0 0 0
SMALL
GASTEIGER

@<TRIPOS>ATOM
      1 N         143.4441  141.8283  160.7684 N.am    1  UNL1       -0.2756
      2 C         143.5343  140.4662  161.3901 C.3     1  UNL1        0.1151
      3 C         143.0716  143.0133  161.6092 C.2     1  UNL1        0.2490
      4 O         142.9814  144.3754  160.9875 O.2     1  UNL1       -0.2699
      5 C         145.9828  142.7349  154.4452 C.ar    1  UNL1       -0.0065
      6 C         147.1100  142.7560  155.4345 C.ar    1  UNL1       -0.0033
      7 C         146.8277  142.5789  156.8971 C.ar    1  UNL1       -0.0048
      8 C         145.4182  142.3807  157.3702 C.ar    1  UNL1       -0.0245
      9 C         144.2910  142.3596  156.3809 C.ar    1  UNL1       -0.0263
     10 C         144.5732  142.5367  154.9183 C.ar    1  UNL1       -0.0075
     11 C         142.8813  142.1613  156.8540 C.3     1  UNL1        0.0277
     12 C         142.5990  141.9843  158.3165 C.3     1  UNL1        0.0248
     13 C         143.7264  142.0054  159.3059 C.3     1  UNL1        0.0804
     14 C         145.1359  142.2036  158.8327 C.3     1  UNL1        0.0458
     15 C         146.2650  142.9120  152.9827 C.3     1  UNL1        0.0992
     16 C         147.0144  140.6322  151.9872 C.3     1  UNL1        0.0899
     17 N         147.3074  142.0669  152.3123 N.3     1  UNL1       -0.2665
     18 C         148.6427  142.6566  151.9670 C.3     1  UNL1        0.0899
     19 C         142.7893  142.8362  163.0717 C.ar    1  UNL1        0.0536
     20 C         141.3956  142.5312  163.5350 C.ar    1  UNL1        0.0045
     21 C         141.1133  142.3542  164.9975 C.ar    1  UNL1        0.0001
     22 C         142.2247  142.4821  165.9968 C.ar    1  UNL1        0.0000
     23 C         143.6183  142.7871  165.5335 C.ar    1  UNL1        0.0001
     24 C         143.9006  142.9642  164.0709 C.ar    1  UNL1        0.0045
     25 C         141.9424  142.3050  167.4593 C.ar    1  UNL1        0.0001
     26 C         140.5257  142.2687  167.9507 C.ar    1  UNL1        0.0023
     27 C         140.2434  142.0916  169.4132 C.ar    1  UNL1        0.0296
     28 C         141.3778  141.9508  170.3843 C.ar    1  UNL1        0.1401
     29 F         141.0955  141.7738  171.8468 F       1  UNL1       -0.2042
     30 C         142.7946  141.9871  169.8929 C.ar    1  UNL1        0.0296
     31 C         143.0769  142.1642  168.4304 C.ar    1  UNL1        0.0023
@<TRIPOS>BOND
     1    16    17    1
     2    17    18    1
     3    17    15    1
     4    15     5    1
     5     5     6   ar
     6     6     7   ar
     7     7     8   ar
     8     8     9   ar
     9     9    10   ar
    10     9    11    1
    11    11    12    1
    12    12    13    1
    13    13     1    1
    14     1     2    1
    15     1     3   am
    16     3     4    2
    17     3    19    1
    18    19    20   ar
    19    20    21   ar
    20    21    22   ar
    21    22    25    1
    22    25    26   ar
    23    26    27   ar
    24    27    28   ar
    25    28    29    1
    26    28    30   ar
    27    30    31   ar
    28    22    23   ar
    29    23    24   ar
    30    13    14    1
    31    10     5   ar
    32    24    19   ar
    33    14     8    1
    34    31    25   ar
@<TRIPOS>MOLECULE
*****
 31 34 0 0 0
SMALL
GASTEIGER

@<TRIPOS>ATOM
      1 N         141.4388  139.5545  160.9465 N.am    1  UNL1       -0.2756
      2 C         142.2099  140.7883  161.3115 C.3     1  UNL1        0.1151
      3 C         140.5514  138.8970  161.9615 C.2     1  UNL1        0.2490
      4 O         139.7804  137.6633  161.5965 O.2     1  UNL1       -0.2699
      5 C         140.9714  137.7025  154.3434 C.ar    1  UNL1       -0.0065
      6 C         139.9219  138.7323  154.6400 C.ar    1  UNL1       -0.0033
      7 C         139.8055  139.3087  156.0199 C.ar    1  UNL1       -0.0048
      8 C         140.7386  138.8552  157.1033 C.ar    1  UNL1       -0.0245
      9 C         141.7880  137.8254  156.8067 C.ar    1  UNL1       -0.0263
     10 C         141.9044  137.2491  155.4267 C.ar    1  UNL1       -0.0075
     11 C         142.7212  137.3719  157.8900 C.3     1  UNL1        0.0277
     12 C         142.6048  137.9482  159.2700 C.3     1  UNL1        0.0248
     13 C         141.5552  138.9781  159.5666 C.3     1  UNL1        0.0804
     14 C         140.6222  139.4316  158.4832 C.3     1  UNL1        0.0458
     15 C         141.0878  137.1262  152.9634 C.3     1  UNL1        0.0992
     16 C         138.9163  136.0563  152.0201 C.3     1  UNL1        0.0899
     17 N         140.2958  135.9082  152.5900 N.3     1  UNL1       -0.2665
     18 C         140.8835  134.5422  152.7866 C.3     1  UNL1        0.0899
     19 C         140.4350  139.4734  163.3414 C.ar    1  UNL1        0.0536
     20 C         141.2083  138.8675  164.4750 C.ar    1  UNL1        0.0045
     21 C         141.0919  139.4439  165.8549 C.ar    1  UNL1        0.0001
     22 C         140.2022  140.6261  166.1013 C.ar    1  UNL1        0.0000
     23 C         139.4289  141.2320  164.9678 C.ar    1  UNL1        0.0001
     24 C         139.5453  140.6556  163.5879 C.ar    1  UNL1        0.0045
     25 C         140.0858  141.2025  167.4813 C.ar    1  UNL1        0.0001
     26 C         139.5284  140.3696  168.5974 C.ar    1  UNL1        0.0023
     27 C         139.4120  140.9460  169.9773 C.ar    1  UNL1        0.0296
     28 C         139.8530  142.3552  170.2412 C.ar    1  UNL1        0.1401
     29 F         139.7366  142.9315  171.6211 F       1  UNL1       -0.2042
     30 C         140.4104  143.1880  169.1251 C.ar    1  UNL1        0.0296
     31 C         140.5268  142.6116  167.7452 C.ar    1  UNL1        0.0023
@<TRIPOS>BOND
     1    16    17    1
     2    17    18    1
     3    17    15    1
     4    15     5    1
     5     5     6   ar
     6     6     7   ar
     7     7     8   ar
     8     8     9   ar
     9     9    10   ar
    10     9    11    1
    11    11    12    1
    12    12    13    1
    13    13     1    1
    14     1     2    1
    15     1     3   am
    16     3     4    2
    17     3    19    1
    18    19    20   ar
    19    20    21   ar
    20    21    22   ar
    21    22    25    1
    22    25    26   ar
    23    26    27   ar
    24    27    28   ar
    25    28    29    1
    26    28    30   ar
    27    30    31   ar
    28    22    23   ar
    29    23    24   ar
    30    13    14    1
    31    10     5   ar
    32    24    19   ar
    33    14     8    1
    34    31    25   ar
@<TRIPOS>MOLECULE
*****
 31 34 0 0 0
SMALL
GASTEIGER

@<TRIPOS>ATOM
      1 N         140.7436  141.5344  156.0149 N.am    1  UNL1       -0.2756
      2 C         141.0687  142.3138  157.2546 C.3     1  UNL1        0.1151
      3 C         140.1974  142.2382  154.8082 C.2     1  UNL1        0.2490
      4 O         139.8724  141.4588  153.5685 O.2     1  UNL1       -0.2699
      5 C         143.0003  135.0533  155.6227 C.ar    1  UNL1       -0.0065
      6 C         144.1508  135.9885  155.3952 C.ar    1  UNL1       -0.0033
      7 C         143.9296  137.4717  155.4282 C.ar    1  UNL1       -0.0048
      8 C         142.5578  138.0198  155.6886 C.ar    1  UNL1       -0.0245
      9 C         141.4073  137.0847  155.9160 C.ar    1  UNL1       -0.0263
     10 C         141.6285  135.6014  155.8831 C.ar    1  UNL1       -0.0075
     11 C         140.0355  137.6328  156.1764 C.3     1  UNL1        0.0277
     12 C         139.8142  139.1160  156.2094 C.3     1  UNL1        0.0248
     13 C         140.9648  140.0511  155.9819 C.3     1  UNL1        0.0804
     14 C         142.3366  139.5030  155.7215 C.3     1  UNL1        0.0458
     15 C         143.2215  133.5701  155.5897 C.3     1  UNL1        0.0992
     16 C         144.9377  131.7223  156.2143 C.3     1  UNL1        0.0899
     17 N         144.1259  132.9242  156.5971 N.3     1  UNL1       -0.2665
     18 C         144.2186  133.4801  157.9872 C.3     1  UNL1        0.0899
     19 C         139.9761  143.7214  154.8411 C.ar    1  UNL1        0.0536
     20 C         138.6498  144.2724  155.2735 C.ar    1  UNL1        0.0045
     21 C         138.4285  145.7557  155.3065 C.ar    1  UNL1        0.0001
     22 C         139.5337  146.6879  154.9070 C.ar    1  UNL1        0.0000
     23 C         140.8601  146.1368  154.4746 C.ar    1  UNL1        0.0001
     24 C         141.0813  144.6536  154.4417 C.ar    1  UNL1        0.0045
     25 C         139.3125  148.1711  154.9400 C.ar    1  UNL1        0.0001
     26 C         138.5802  148.7948  156.0909 C.ar    1  UNL1        0.0023
     27 C         138.3590  150.2780  156.1239 C.ar    1  UNL1        0.0296
     28 C         138.8700  151.1376  155.0059 C.ar    1  UNL1        0.1401
     29 F         138.6488  152.6208  155.0388 F       1  UNL1       -0.2042
     30 C         139.6023  150.5139  153.8549 C.ar    1  UNL1        0.0296
     31 C         139.8235  149.0306  153.8219 C.ar    1  UNL1        0.0023
@<TRIPOS>BOND
     1    16    17    1
     2    17    18    1
     3    17    15    1
     4    15     5    1
     5     5     6   ar
     6     6     7   ar
     7     7     8   ar
     8     8     9   ar
     9     9    10   ar
    10     9    11    1
    11    11    12    1
    12    12    13    1
    13    13     1    1
    14     1     2    1
    15     1     3   am
    16     3     4    2
    17     3    19    1
    18    19    20   ar
    19    20    21   ar
    20    21    22   ar
    21    22    25    1
    22    25    26   ar
    23    26    27   ar
    24    27    28   ar
    25    28    29    1
    26    28    30   ar
    27    30    31   ar
    28    22    23   ar
    29    23    24   ar
    30    13    14    1
    31    10     5   ar
    32    24    19   ar
    33    14     8    1
    34    31    25   ar
@<TRIPOS>MOLECULE
*****
 31 34 0 0 0
SMALL
GASTEIGER

@<TRIPOS>ATOM
      1 N         141.4996  137.3294  157.1629 N.am    1  UNL1       -0.2756
      2 C         142.6736  137.8161  157.9599 C.3     1  UNL1        0.1151
      3 C         140.1325  137.8888  157.4236 C.2     1  UNL1        0.2490
      4 O         138.9586  137.4021  156.6267 O.2     1  UNL1       -0.2699
      5 C         142.9615  131.8561  153.2700 C.ar    1  UNL1       -0.0065
      6 C         143.4570  131.6131  154.6647 C.ar    1  UNL1       -0.0033
      7 C         143.2638  132.6591  155.7222 C.ar    1  UNL1       -0.0048
      8 C         142.5750  133.9482  155.3851 C.ar    1  UNL1       -0.0245
      9 C         142.0794  134.1912  153.9903 C.ar    1  UNL1       -0.0263
     10 C         142.2727  133.1452  152.9328 C.ar    1  UNL1       -0.0075
     11 C         141.3905  135.4804  153.6531 C.3     1  UNL1        0.0277
     12 C         141.1973  136.5264  154.7106 C.3     1  UNL1        0.0248
     13 C         141.6929  136.2834  156.1054 C.3     1  UNL1        0.0804
     14 C         142.3817  134.9943  156.4426 C.3     1  UNL1        0.0458
     15 C         143.1548  130.8100  152.2124 C.3     1  UNL1        0.0992
     16 C         142.3626  128.4523  152.9633 C.3     1  UNL1        0.0899
     17 N         143.4710  129.3970  152.6041 N.3     1  UNL1       -0.2665
     18 C         144.8957  128.9287  152.6365 C.3     1  UNL1        0.0899
     19 C         139.9392  138.9349  158.4811 C.ar    1  UNL1        0.0536
     20 C         139.6727  138.5269  159.8997 C.ar    1  UNL1        0.0045
     21 C         139.4794  139.5730  160.9573 C.ar    1  UNL1        0.0001
     22 C         139.5527  141.0270  160.5962 C.ar    1  UNL1        0.0000
     23 C         139.8192  141.4350  159.1776 C.ar    1  UNL1        0.0001
     24 C         140.0124  140.3889  158.1201 C.ar    1  UNL1        0.0045
     25 C         139.3594  142.0731  161.6537 C.ar    1  UNL1        0.0001
     26 C         140.4963  142.4428  162.5596 C.ar    1  UNL1        0.0023
     27 C         140.3031  143.4889  163.6172 C.ar    1  UNL1        0.0296
     28 C         138.9729  144.1652  163.7688 C.ar    1  UNL1        0.1401
     29 F         138.7796  145.2113  164.8264 F       1  UNL1       -0.2042
     30 C         137.8359  143.7955  162.8630 C.ar    1  UNL1        0.0296
     31 C         138.0292  142.7494  161.8054 C.ar    1  UNL1        0.0023
@<TRIPOS>BOND
     1    16    17    1
     2    17    18    1
     3    17    15    1
     4    15     5    1
     5     5     6   ar
     6     6     7   ar
     7     7     8   ar
     8     8     9   ar
     9     9    10   ar
    10     9    11    1
    11    11    12    1
    12    12    13    1
    13    13     1    1
    14     1     2    1
    15     1     3   am
    16     3     4    2
    17     3    19    1
    18    19    20   ar
    19    20    21   ar
    20    21    22   ar
    21    22    25    1
    22    25    26   ar
    23    26    27   ar
    24    27    28   ar
    25    28    29    1
    26    28    30   ar
    27    30    31   ar
    28    22    23   ar
    29    23    24   ar
    30    13    14    1
    31    10     5   ar
    32    24    19   ar
    33    14     8    1
    34    31    25   ar
@<TRIPOS>MOLECULE
*****
 31 34 0 0 0
SMALL
GASTEIGER

@<TRIPOS>ATOM
      1 N         139.5111  141.7721  160.7323 N.am    1  UNL1       -0.2756
      2 C         140.7912  141.0493  161.0303 C.3     1  UNL1        0.1151
      3 C         138.8026  142.5225  161.8208 C.2     1  UNL1        0.2490
      4 O         137.5225  143.2453  161.5228 O.2     1  UNL1       -0.2699
      5 C         137.4794  142.8035  154.2470 C.ar    1  UNL1       -0.0065
      6 C         138.3057  143.9727  154.6946 C.ar    1  UNL1       -0.0033
      7 C         138.8773  144.0002  156.0811 C.ar    1  UNL1       -0.0048
      8 C         138.6226  142.8586  157.0202 C.ar    1  UNL1       -0.0245
      9 C         137.7963  141.6895  156.5726 C.ar    1  UNL1       -0.0263
     10 C         137.2247  141.6619  155.1861 C.ar    1  UNL1       -0.0075
     11 C         137.5416  140.5478  157.5117 C.3     1  UNL1        0.0277
     12 C         138.1132  140.5753  158.8982 C.3     1  UNL1        0.0248
     13 C         138.9395  141.7446  159.3457 C.3     1  UNL1        0.0804
     14 C         139.1942  142.8862  158.4067 C.3     1  UNL1        0.0458
     15 C         136.9078  142.7760  152.8605 C.3     1  UNL1        0.0992
     16 C         134.4311  142.0246  152.6340 C.3     1  UNL1        0.0899
     17 N         135.8954  141.7341  152.4872 N.3     1  UNL1       -0.2665
     18 C         136.3471  140.4017  151.9670 C.3     1  UNL1        0.0899
     19 C         139.3742  142.5500  163.2074 C.ar    1  UNL1        0.0536
     20 C         140.2970  143.6596  163.6163 C.ar    1  UNL1        0.0045
     21 C         140.8686  143.6871  165.0028 C.ar    1  UNL1        0.0001
     22 C         140.5173  142.6051  165.9805 C.ar    1  UNL1        0.0000
     23 C         139.5945  141.4955  165.5716 C.ar    1  UNL1        0.0001
     24 C         139.0229  141.4680  164.1850 C.ar    1  UNL1        0.0045
     25 C         141.0889  142.6326  167.3670 C.ar    1  UNL1        0.0001
     26 C         140.3280  143.2917  168.4790 C.ar    1  UNL1        0.0023
     27 C         140.8996  143.3192  169.8656 C.ar    1  UNL1        0.0296
     28 C         142.2321  142.6877  170.1401 C.ar    1  UNL1        0.1401
     29 F         142.8037  142.7153  171.5267 F       1  UNL1       -0.2042
     30 C         142.9931  142.0287  169.0282 C.ar    1  UNL1        0.0296
     31 C         142.4215  142.0011  167.6416 C.ar    1  UNL1        0.0023
@<TRIPOS>BOND
     1    16    17    1
     2    17    18    1
     3    17    15    1
     4    15     5    1
     5     5     6   ar
     6     6     7   ar
     7     7     8   ar
     8     8     9   ar
     9     9    10   ar
    10     9    11    1
    11    11    12    1
    12    12    13    1
    13    13     1    1
    14     1     2    1
    15     1     3   am
    16     3     4    2
    17     3    19    1
    18    19    20   ar
    19    20    21   ar
    20    21    22   ar
    21    22    25    1
    22    25    26   ar
    23    26    27   ar
    24    27    28   ar
    25    28    29    1
    26    28    30   ar
    27    30    31   ar
    28    22    23   ar
    29    23    24   ar
    30    13    14    1
    31    10     5   ar
    32    24    19   ar
    33    14     8    1
    34    31    25   ar
@<TRIPOS>MOLECULE
*****
 31 34 0 0 0
SMALL
GASTEIGER

@<TRIPOS>ATOM
      1 N         141.7807  137.4157  155.9498 N.am    1  UNL1       -0.2756
      2 C         142.8973  138.3416  155.5678 C.3     1  UNL1        0.1151
      3 C         140.4320  137.9714  156.2995 C.2     1  UNL1        0.2490
      4 O         139.3155  137.0455  156.6815 O.2     1  UNL1       -0.2699
      5 C         143.7884  130.9181  156.9500 C.ar    1  UNL1       -0.0065
      6 C         144.6357  131.8284  157.7885 C.ar    1  UNL1       -0.0033
      7 C         144.4037  133.3100  157.7562 C.ar    1  UNL1       -0.0048
      8 C         143.3242  133.8812  156.8853 C.ar    1  UNL1       -0.0245
      9 C         142.4769  132.9709  156.0468 C.ar    1  UNL1       -0.0263
     10 C         142.7090  131.4893  156.0791 C.ar    1  UNL1       -0.0075
     11 C         141.3974  133.5421  155.1758 C.3     1  UNL1        0.0277
     12 C         141.1653  135.0237  155.1435 C.3     1  UNL1        0.0248
     13 C         142.0127  135.9341  155.9821 C.3     1  UNL1        0.0804
     14 C         143.0922  135.3628  156.8530 C.3     1  UNL1        0.0458
     15 C         144.0205  129.4365  156.9823 C.3     1  UNL1        0.0992
     16 C         143.4037  128.6492  159.3801 C.3     1  UNL1        0.0899
     17 N         143.2055  128.5694  157.8954 N.3     1  UNL1       -0.2665
     18 C         142.1922  127.6224  157.3239 C.3     1  UNL1        0.0899
     19 C         140.1999  139.4529  156.2672 C.ar    1  UNL1        0.0536
     20 C         139.7612  140.1158  154.9952 C.ar    1  UNL1        0.0045
     21 C         139.5292  141.5974  154.9628 C.ar    1  UNL1        0.0001
     22 C         139.7358  142.4161  156.2026 C.ar    1  UNL1        0.0000
     23 C         140.1745  141.7532  157.4746 C.ar    1  UNL1        0.0001
     24 C         140.4066  140.2717  157.5069 C.ar    1  UNL1        0.0045
     25 C         139.5037  143.8977  156.1703 C.ar    1  UNL1        0.0001
     26 C         140.2903  144.7999  157.0742 C.ar    1  UNL1        0.0023
     27 C         140.0582  146.2815  157.0419 C.ar    1  UNL1        0.0296
     28 C         139.0395  146.8609  156.1056 C.ar    1  UNL1        0.1401
     29 F         138.8075  148.3424  156.0733 F       1  UNL1       -0.2042
     30 C         138.2530  145.9586  155.2017 C.ar    1  UNL1        0.0296
     31 C         138.4851  144.4770  155.2340 C.ar    1  UNL1        0.0023
@<TRIPOS>BOND
     1    16    17    1
     2    17    18    1
     3    17    15    1
     4    15     5    1
     5     5     6   ar
     6     6     7   ar
     7     7     8   ar
     8     8     9   ar
     9     9    10   ar
    10     9    11    1
    11    11    12    1
    12    12    13    1
    13    13     1    1
    14     1     2    1
    15     1     3   am
    16     3     4    2
    17     3    19    1
    18    19    20   ar
    19    20    21   ar
    20    21    22   ar
    21    22    25    1
    22    25    26   ar
    23    26    27   ar
    24    27    28   ar
    25    28    29    1
    26    28    30   ar
    27    30    31   ar
    28    22    23   ar
    29    23    24   ar
    30    13    14    1
    31    10     5   ar
    32    24    19   ar
    33    14     8    1
    34    31    25   ar
