@<TRIPOS>MOLECULE
*****
 47 53 0 0 0
SMALL
GASTEIGER

@<TRIPOS>ATOM
      1 C         138.1809  144.3302  164.4213 C.3     1  UNL1        0.0320
      2 C         137.8054  140.2015  162.6711 C.3     1  UNL1        0.0700
      3 C         137.7217  141.4047  161.7792 C.3     1  UNL1        0.0193
      4 C         137.8468  142.7809  162.3626 C.3     1  UNL1        0.0286
      5 C         138.0558  142.9540  163.8379 C.3     1  UNL1        0.0932
      6 C         138.1395  141.7509  164.7298 C.3     1  UNL1        0.0286
      7 C         138.0143  140.3746  164.1463 C.3     1  UNL1        0.0193
      8 O         137.9929  142.1800  163.5642 O.3     1  UNL1       -0.3572
      9 C         137.8797  140.9356  163.0368 C.3     1  UNL1        0.1562
     10 N         137.6802  138.8253  162.0878 N.3     1  UNL1       -0.2926
     11 H         137.3970  138.2077  162.8485 H       1  UNL1        0.1236
     12 C         138.8616  138.1816  161.4243 C.3     1  UNL1        0.1152
     13 O         143.7526  138.2190  167.4928 O.2     1  UNL1       -0.2707
     14 C         143.4997  138.4125  166.0270 C.2     1  UNL1        0.2718
     15 C         144.6242  138.8121  165.1182 C.3     1  UNL1        0.2898
     16 O         144.3712  139.0057  163.6524 O.3     1  UNL1       -0.4628
     17 C         142.9938  138.7997  163.0954 C.ar    1  UNL1        0.1708
     18 C         142.7409  138.9933  161.6296 C.ar    1  UNL1        0.0411
     19 C         141.3635  138.7873  161.0726 C.ar    1  UNL1        0.0193
     20 C         140.2390  138.3876  161.9814 C.ar    1  UNL1        0.0765
     21 N         140.4919  138.1941  163.4472 N.ar    1  UNL1       -0.2304
     22 C         141.8694  138.4001  164.0042 C.ar    1  UNL1        0.1682
     23 N         142.1223  138.2065  165.4700 N.am    1  UNL1       -0.2639
     24 H         141.3843  137.9442  166.0664 H       1  UNL1        0.1565
     25 C         139.5115  145.0226  164.4308 C.3     1  UNL1        0.0327
     26 C         140.4432  144.8731  163.2647 C.ar    1  UNL1        0.0261
     27 C         140.1238  145.5395  161.9593 C.ar    1  UNL1        0.1566
     28 F         138.8729  146.3553  161.8200 F       1  UNL1       -0.2028
     29 C         141.0555  145.3899  160.7933 C.ar    1  UNL1        0.1281
     30 N         142.3064  144.5740  160.9326 N.ar    1  UNL1       -0.2400
     31 C         142.6258  143.9077  162.2379 C.ar    1  UNL1        0.0990
     32 C         143.8767  143.0918  162.3772 C.ar    1  UNL1        0.0254
     33 C         144.1961  142.4254  163.6827 C.ar    1  UNL1        0.0593
     34 C         143.2644  142.5750  164.8487 C.ar    1  UNL1        0.2253
     35 N         142.0135  143.3908  164.7094 N.ar    1  UNL1       -0.2104
     36 C         141.6941  144.0572  163.4041 C.ar    1  UNL1        0.1002
     37 O         143.5838  141.9086  166.1540 O.3     1  UNL1       -0.4539
     38 C         143.1208  142.5220  167.4422 C.3     1  UNL1        0.2486
     39 C         142.0681  141.8377  168.2630 C.2     1  UNL1        0.0883
     40 C         141.8175  142.2741  169.6761 C.3     1  UNL1        0.1174
     41 C         140.7648  141.5900  170.4968 C.2     1  UNL1        0.2137
     42 O         140.5143  142.0263  171.9099 O.2     1  UNL1       -0.2877
     43 C         139.9627  140.4694  169.9045 C.2     1  UNL1        0.1884
     44 O         138.9099  139.7852  170.7253 O.2     1  UNL1       -0.5019
     45 C         140.2132  140.0331  168.4914 C.2     1  UNL1        0.1377
     46 N         141.2659  140.7172  167.6707 N.2     1  UNL1       -0.2451
     47 H         138.7533  140.0578  171.6080 H       1  UNL1        0.2924
@<TRIPOS>BOND
     1    13    14    2
     2    14    15    1
     3    15    16    1
     4    16    17    1
     5    17    18   ar
     6    18    19   ar
     7    19    20   ar
     8    20    12    1
     9    12    10    1
    10    10     2    1
    11     2     3    1
    12     3     4    1
    13     4     5    1
    14     5     1    1
    15     1    25    1
    16    25    26    1
    17    26    27   ar
    18    27    28    1
    19    27    29   ar
    20    29    30   ar
    21    30    31   ar
    22    31    32   ar
    23    32    33   ar
    24    33    34   ar
    25    34    37    1
    26    37    38    1
    27    38    39    1
    28    39    40    1
    29    40    41    1
    30    41    42    2
    31    41    43    1
    32    43    44    1
    33    43    45    2
    34    45    46    1
    35    34    35   ar
    36    35    36   ar
    37     5     6    1
    38     6     7    1
    39     5     8    1
    40     8     9    1
    41    20    21   ar
    42    21    22   ar
    43    22    23    1
    44    23    14   am
    45    22    17   ar
    46     7     2    1
    47     9     2    1
    48    36    26   ar
    49    36    31   ar
    50    46    39    2
    51    10    11    1
    52    44    47    1
    53    23    24    1
@<TRIPOS>MOLECULE
*****
 47 53 0 0 0
SMALL
GASTEIGER

@<TRIPOS>ATOM
      1 C         140.3668  137.5428  164.0610 C.3     1  UNL1        0.0320
      2 C         144.2406  139.7285  163.3786 C.3     1  UNL1        0.0700
      3 C         143.7927  139.4144  164.7753 C.3     1  UNL1        0.0193
      4 C         142.5014  138.6858  165.0027 C.3     1  UNL1        0.0286
      5 C         141.6580  138.2714  163.8335 C.3     1  UNL1        0.0932
      6 C         142.1060  138.5855  162.4368 C.3     1  UNL1        0.0286
      7 C         143.3973  139.3141  162.2094 C.3     1  UNL1        0.0193
      8 O         142.3578  138.6686  163.6591 O.3     1  UNL1       -0.3572
      9 C         143.5254  139.3274  163.4534 C.3     1  UNL1        0.1562
     10 N         145.5319  140.4571  163.1511 N.3     1  UNL1       -0.2926
     11 H         146.2319  140.0067  163.7407 H       1  UNL1        0.1236
     12 C         145.6200  141.9298  163.4223 C.3     1  UNL1        0.1152
     13 O         140.6478  145.1333  158.3464 O.2     1  UNL1       -0.2707
     14 C         141.1287  144.9519  159.7556 C.2     1  UNL1        0.2718
     15 C         140.4329  145.6568  160.8821 C.3     1  UNL1        0.2898
     16 O         140.9138  145.4754  162.2913 O.3     1  UNL1       -0.4628
     17 C         142.0903  144.5890  162.5741 C.ar    1  UNL1        0.1708
     18 C         142.5711  144.4076  163.9833 C.ar    1  UNL1        0.0411
     19 C         143.7477  143.5212  164.2660 C.ar    1  UNL1        0.0193
     20 C         144.4435  142.8162  163.1396 C.ar    1  UNL1        0.0765
     21 N         143.9626  142.9976  161.7303 N.ar    1  UNL1       -0.2304
     22 C         142.7860  143.8841  161.4476 C.ar    1  UNL1        0.1682
     23 N         142.3052  144.0655  160.0384 N.am    1  UNL1       -0.2639
     24 H         142.7619  143.6028  159.2991 H       1  UNL1        0.1565
     25 C         139.1208  138.3101  164.3911 C.3     1  UNL1        0.0327
     26 C         138.5617  139.2926  163.4053 C.ar    1  UNL1        0.0261
     27 C         137.9514  138.8053  162.1245 C.ar    1  UNL1        0.1566
     28 F         137.9003  137.3354  161.8297 F       1  UNL1       -0.2028
     29 C         137.3923  139.7878  161.1387 C.ar    1  UNL1        0.1281
     30 N         137.4433  141.2576  161.4335 N.ar    1  UNL1       -0.2400
     31 C         138.0536  141.7450  162.7141 C.ar    1  UNL1        0.0990
     32 C         138.1046  143.2148  163.0089 C.ar    1  UNL1        0.0254
     33 C         138.7149  143.7022  164.2896 C.ar    1  UNL1        0.0593
     34 C         139.2740  142.7196  165.2755 C.ar    1  UNL1        0.2253
     35 N         139.2229  141.2498  164.9807 N.ar    1  UNL1       -0.2104
     36 C         138.6127  140.7624  163.7000 C.ar    1  UNL1        0.1002
     37 O         139.8842  143.2070  166.5561 O.3     1  UNL1       -0.4539
     38 C         141.2783  142.7957  166.9268 C.3     1  UNL1        0.2486
     39 C         141.5565  142.2304  168.2882 C.2     1  UNL1        0.0883
     40 C         140.7153  142.6452  169.4587 C.3     1  UNL1        0.1174
     41 C         140.9934  142.0800  170.8200 C.2     1  UNL1        0.2137
     42 O         140.1522  142.4949  171.9906 O.2     1  UNL1       -0.2877
     43 C         142.1128  141.0999  171.0107 C.2     1  UNL1        0.1884
     44 O         142.3910  140.5346  172.3720 O.2     1  UNL1       -0.5019
     45 C         142.9540  140.6850  169.8401 C.2     1  UNL1        0.1377
     46 N         142.6758  141.2503  168.4789 N.2     1  UNL1       -0.2451
     47 H         141.8655  140.7937  173.1033 H       1  UNL1        0.2924
@<TRIPOS>BOND
     1    13    14    2
     2    14    15    1
     3    15    16    1
     4    16    17    1
     5    17    18   ar
     6    18    19   ar
     7    19    20   ar
     8    20    12    1
     9    12    10    1
    10    10     2    1
    11     2     3    1
    12     3     4    1
    13     4     5    1
    14     5     1    1
    15     1    25    1
    16    25    26    1
    17    26    27   ar
    18    27    28    1
    19    27    29   ar
    20    29    30   ar
    21    30    31   ar
    22    31    32   ar
    23    32    33   ar
    24    33    34   ar
    25    34    37    1
    26    37    38    1
    27    38    39    1
    28    39    40    1
    29    40    41    1
    30    41    42    2
    31    41    43    1
    32    43    44    1
    33    43    45    2
    34    45    46    1
    35    34    35   ar
    36    35    36   ar
    37     5     6    1
    38     6     7    1
    39     5     8    1
    40     8     9    1
    41    20    21   ar
    42    21    22   ar
    43    22    23    1
    44    23    14   am
    45    22    17   ar
    46     7     2    1
    47     9     2    1
    48    36    26   ar
    49    36    31   ar
    50    46    39    2
    51    10    11    1
    52    44    47    1
    53    23    24    1
@<TRIPOS>MOLECULE
*****
 47 53 0 0 0
SMALL
GASTEIGER

@<TRIPOS>ATOM
      1 C         143.4765  138.1574  161.3258 C.3     1  UNL1        0.0320
      2 C         145.1842  141.5904  163.6813 C.3     1  UNL1        0.0700
      3 C         144.8101  141.7814  162.2413 C.3     1  UNL1        0.0193
      4 C         144.2409  140.6371  161.4561 C.3     1  UNL1        0.0286
      5 C         144.0457  139.3017  162.1110 C.3     1  UNL1        0.0932
      6 C         144.4198  139.1107  163.5510 C.3     1  UNL1        0.0286
      7 C         144.9890  140.2551  164.3361 C.3     1  UNL1        0.0193
      8 O         144.3611  139.8990  162.5818 O.3     1  UNL1       -0.3572
      9 C         144.8758  140.9337  163.2918 C.3     1  UNL1        0.1562
     10 N         145.7534  142.7346  164.4665 N.3     1  UNL1       -0.2926
     11 H         146.4628  142.3428  165.0858 H       1  UNL1        0.1236
     12 C         144.8541  143.5805  165.3186 C.3     1  UNL1        0.1152
     13 O         139.2715  146.8080  160.9407 O.2     1  UNL1       -0.2707
     14 C         139.6826  145.8791  162.0444 C.2     1  UNL1        0.2718
     15 C         138.6439  145.0973  162.7925 C.3     1  UNL1        0.2898
     16 O         139.0550  144.1684  163.8962 O.3     1  UNL1       -0.4628
     17 C         140.5047  144.0214  164.2518 C.ar    1  UNL1        0.1708
     18 C         140.9158  143.0925  165.3556 C.ar    1  UNL1        0.0411
     19 C         142.3656  142.9455  165.7112 C.ar    1  UNL1        0.0193
     20 C         143.4044  143.7274  164.9630 C.ar    1  UNL1        0.0765
     21 N         142.9933  144.6563  163.8593 N.ar    1  UNL1       -0.2304
     22 C         141.5434  144.8033  163.5037 C.ar    1  UNL1        0.1682
     23 N         141.1323  145.7322  162.4000 N.am    1  UNL1       -0.2639
     24 H         141.8141  146.2453  161.9090 H       1  UNL1        0.1565
     25 C         142.1220  137.6122  161.6695 C.3     1  UNL1        0.0327
     26 C         140.8962  138.4425  161.4287 C.ar    1  UNL1        0.0261
     27 C         140.3740  138.6222  160.0340 C.ar    1  UNL1        0.1566
     28 F         141.0777  137.9717  158.8801 F       1  UNL1       -0.2028
     29 C         139.1482  139.4525  159.7933 C.ar    1  UNL1        0.1281
     30 N         138.4445  140.1030  160.9473 N.ar    1  UNL1       -0.2400
     31 C         138.9666  139.9233  162.3419 C.ar    1  UNL1        0.0990
     32 C         138.2628  140.5739  163.4958 C.ar    1  UNL1        0.0254
     33 C         138.7850  140.3942  164.8905 C.ar    1  UNL1        0.0593
     34 C         140.0108  139.5639  165.1312 C.ar    1  UNL1        0.2253
     35 N         140.7146  138.9133  163.9773 N.ar    1  UNL1       -0.2104
     36 C         140.1925  139.0930  162.5827 C.ar    1  UNL1        0.1002
     37 O         140.5329  139.3842  166.5259 O.3     1  UNL1       -0.4539
     38 C         139.9475  140.1804  167.6543 C.3     1  UNL1        0.2486
     39 C         140.8314  141.0569  168.4914 C.2     1  UNL1        0.0883
     40 C         140.3274  142.3829  168.9791 C.3     1  UNL1        0.1174
     41 C         141.2112  143.2593  169.8161 C.2     1  UNL1        0.2137
     42 O         140.7072  144.5853  170.3039 O.2     1  UNL1       -0.2877
     43 C         142.5989  142.8099  170.1654 C.2     1  UNL1        0.1884
     44 O         143.4828  143.6864  171.0025 O.2     1  UNL1       -0.5019
     45 C         143.1029  141.4840  169.6777 C.2     1  UNL1        0.1377
     46 N         142.2191  140.6075  168.8406 N.2     1  UNL1       -0.2451
     47 H         143.1680  144.5147  171.3071 H       1  UNL1        0.2924
@<TRIPOS>BOND
     1    13    14    2
     2    14    15    1
     3    15    16    1
     4    16    17    1
     5    17    18   ar
     6    18    19   ar
     7    19    20   ar
     8    20    12    1
     9    12    10    1
    10    10     2    1
    11     2     3    1
    12     3     4    1
    13     4     5    1
    14     5     1    1
    15     1    25    1
    16    25    26    1
    17    26    27   ar
    18    27    28    1
    19    27    29   ar
    20    29    30   ar
    21    30    31   ar
    22    31    32   ar
    23    32    33   ar
    24    33    34   ar
    25    34    37    1
    26    37    38    1
    27    38    39    1
    28    39    40    1
    29    40    41    1
    30    41    42    2
    31    41    43    1
    32    43    44    1
    33    43    45    2
    34    45    46    1
    35    34    35   ar
    36    35    36   ar
    37     5     6    1
    38     6     7    1
    39     5     8    1
    40     8     9    1
    41    20    21   ar
    42    21    22   ar
    43    22    23    1
    44    23    14   am
    45    22    17   ar
    46     7     2    1
    47     9     2    1
    48    36    26   ar
    49    36    31   ar
    50    46    39    2
    51    10    11    1
    52    44    47    1
    53    23    24    1
@<TRIPOS>MOLECULE
*****
 47 53 0 0 0
SMALL
GASTEIGER

@<TRIPOS>ATOM
      1 C         144.5241  140.8467  164.1489 C.3     1  UNL1        0.0320
      2 C         142.2118  144.6252  163.3577 C.3     1  UNL1        0.0700
      3 C         143.2428  144.1569  162.3740 C.3     1  UNL1        0.0193
      4 C         144.0135  142.8975  162.6376 C.3     1  UNL1        0.0286
      5 C         143.7533  142.1062  163.8852 C.3     1  UNL1        0.0932
      6 C         142.7223  142.5744  164.8689 C.3     1  UNL1        0.0286
      7 C         141.9515  143.8340  164.6052 C.3     1  UNL1        0.0193
      8 O         143.3059  142.7900  163.7840 O.3     1  UNL1       -0.3572
      9 C         142.6090  143.9288  163.5456 C.3     1  UNL1        0.1562
     10 N         141.4410  145.8847  163.0940 N.3     1  UNL1       -0.2926
     11 H         141.1775  146.2645  164.0033 H       1  UNL1        0.1236
     12 C         140.1917  145.8398  162.2650 C.3     1  UNL1        0.1152
     13 O         138.6196  139.3958  158.1720 O.2     1  UNL1       -0.2707
     14 C         138.3927  140.2547  159.3807 C.2     1  UNL1        0.2718
     15 C         137.4149  139.8244  160.4336 C.3     1  UNL1        0.2898
     16 O         137.1880  140.6833  161.6423 O.3     1  UNL1       -0.4628
     17 C         137.9389  141.9724  161.7980 C.ar    1  UNL1        0.1708
     18 C         137.7120  142.8313  163.0066 C.ar    1  UNL1        0.0411
     19 C         138.4629  144.1204  163.1623 C.ar    1  UNL1        0.0193
     20 C         139.4408  144.5507  162.1093 C.ar    1  UNL1        0.0765
     21 N         139.6677  143.6918  160.9006 N.ar    1  UNL1       -0.2304
     22 C         138.9167  142.4027  160.7450 C.ar    1  UNL1        0.1682
     23 N         139.1436  141.5438  159.5363 N.am    1  UNL1       -0.2639
     24 H         139.7854  141.8262  158.8452 H       1  UNL1        0.1565
     25 C         143.8076  139.6109  164.6066 C.3     1  UNL1        0.0327
     26 C         142.7848  138.9650  163.7196 C.ar    1  UNL1        0.0261
     27 C         143.2087  138.3139  162.4365 C.ar    1  UNL1        0.1566
     28 F         144.6555  138.3087  162.0403 F       1  UNL1       -0.2028
     29 C         142.1859  137.6680  161.5495 C.ar    1  UNL1        0.1281
     30 N         140.7392  137.6732  161.9457 N.ar    1  UNL1       -0.2400
     31 C         140.3153  138.3242  163.2288 C.ar    1  UNL1        0.0990
     32 C         138.8685  138.3294  163.6250 C.ar    1  UNL1        0.0254
     33 C         138.4446  138.9805  164.9081 C.ar    1  UNL1        0.0593
     34 C         139.4674  139.6264  165.7950 C.ar    1  UNL1        0.2253
     35 N         140.9142  139.6212  165.3989 N.ar    1  UNL1       -0.2104
     36 C         141.3381  138.9702  164.1158 C.ar    1  UNL1        0.1002
     37 O         139.0435  140.2775  167.0781 O.3     1  UNL1       -0.4539
     38 C         139.7048  139.8931  168.3685 C.3     1  UNL1        0.2486
     39 C         140.6416  140.8495  169.0451 C.2     1  UNL1        0.0883
     40 C         141.8428  141.3682  168.3116 C.3     1  UNL1        0.1174
     41 C         142.7795  142.3245  168.9882 C.2     1  UNL1        0.2137
     42 O         143.9807  142.8433  168.2546 O.2     1  UNL1       -0.2877
     43 C         142.5151  142.7621  170.3983 C.2     1  UNL1        0.1884
     44 O         143.4519  143.7185  171.0750 O.2     1  UNL1       -0.5019
     45 C         141.3140  142.2434  171.1319 C.2     1  UNL1        0.1377
     46 N         140.3772  141.2870  170.4553 N.2     1  UNL1       -0.2451
     47 H         144.2023  144.0426  170.6168 H       1  UNL1        0.2924
@<TRIPOS>BOND
     1    13    14    2
     2    14    15    1
     3    15    16    1
     4    16    17    1
     5    17    18   ar
     6    18    19   ar
     7    19    20   ar
     8    20    12    1
     9    12    10    1
    10    10     2    1
    11     2     3    1
    12     3     4    1
    13     4     5    1
    14     5     1    1
    15     1    25    1
    16    25    26    1
    17    26    27   ar
    18    27    28    1
    19    27    29   ar
    20    29    30   ar
    21    30    31   ar
    22    31    32   ar
    23    32    33   ar
    24    33    34   ar
    25    34    37    1
    26    37    38    1
    27    38    39    1
    28    39    40    1
    29    40    41    1
    30    41    42    2
    31    41    43    1
    32    43    44    1
    33    43    45    2
    34    45    46    1
    35    34    35   ar
    36    35    36   ar
    37     5     6    1
    38     6     7    1
    39     5     8    1
    40     8     9    1
    41    20    21   ar
    42    21    22   ar
    43    22    23    1
    44    23    14   am
    45    22    17   ar
    46     7     2    1
    47     9     2    1
    48    36    26   ar
    49    36    31   ar
    50    46    39    2
    51    10    11    1
    52    44    47    1
    53    23    24    1
@<TRIPOS>MOLECULE
*****
 47 53 0 0 0
SMALL
GASTEIGER

@<TRIPOS>ATOM
      1 C         138.3544  138.6426  165.1361 C.3     1  UNL1        0.0320
      2 C         138.4122  143.0927  164.4702 C.3     1  UNL1        0.0700
      3 C         139.2391  142.4875  165.5655 C.3     1  UNL1        0.0193
      4 C         139.2199  141.0042  165.7876 C.3     1  UNL1        0.0286
      5 C         138.3737  140.1260  164.9141 C.3     1  UNL1        0.0932
      6 C         137.5467  140.7312  163.8187 C.3     1  UNL1        0.0286
      7 C         137.5660  142.2146  163.5968 C.3     1  UNL1        0.0193
      8 O         138.3517  140.9334  164.7543 O.3     1  UNL1       -0.3572
      9 C         138.3691  142.2747  164.5535 C.3     1  UNL1        0.1562
     10 N         138.4315  144.5760  164.2481 N.3     1  UNL1       -0.2926
     11 H         137.4595  144.8739  164.1647 H       1  UNL1        0.1236
     12 C         139.1625  145.1487  163.0701 C.3     1  UNL1        0.1152
     13 O         144.2146  141.1416  158.6917 O.2     1  UNL1       -0.2707
     14 C         143.9361  142.0435  159.8575 C.2     1  UNL1        0.2718
     15 C         145.0631  142.5116  160.7296 C.3     1  UNL1        0.2898
     16 O         144.7847  143.4134  161.8954 O.3     1  UNL1       -0.4628
     17 C         143.3791  143.8472  162.1891 C.ar    1  UNL1        0.1708
     18 C         143.1007  144.7491  163.3549 C.ar    1  UNL1        0.0411
     19 C         141.6952  145.1829  163.6486 C.ar    1  UNL1        0.0193
     20 C         140.5680  144.7149  162.7764 C.ar    1  UNL1        0.0765
     21 N         140.8465  143.8130  161.6106 N.ar    1  UNL1       -0.2304
     22 C         142.2521  143.3792  161.3170 C.ar    1  UNL1        0.1682
     23 N         142.5306  142.4773  160.1512 N.am    1  UNL1       -0.2639
     24 H         141.7908  142.1701  159.5788 H       1  UNL1        0.1565
     25 C         139.2983  137.7583  164.3765 C.3     1  UNL1        0.0327
     26 C         140.2172  138.3495  163.3490 C.ar    1  UNL1        0.0261
     27 C         139.8176  138.3610  161.9032 C.ar    1  UNL1        0.1566
     28 F         138.4989  137.7811  161.4850 F       1  UNL1       -0.2028
     29 C         140.7366  138.9522  160.8757 C.ar    1  UNL1        0.1281
     30 N         142.0552  139.5321  161.2939 N.ar    1  UNL1       -0.2400
     31 C         142.4549  139.5207  162.7396 C.ar    1  UNL1        0.0990
     32 C         143.7736  140.1006  163.1578 C.ar    1  UNL1        0.0254
     33 C         144.1732  140.0892  164.6036 C.ar    1  UNL1        0.0593
     34 C         143.2542  139.4979  165.6311 C.ar    1  UNL1        0.2253
     35 N         141.9356  138.9180  165.2129 N.ar    1  UNL1       -0.2104
     36 C         141.5359  138.9294  163.7672 C.ar    1  UNL1        0.1002
     37 O         143.6539  139.4865  167.0768 O.3     1  UNL1       -0.4539
     38 C         142.6320  139.1942  168.1352 C.3     1  UNL1        0.2486
     39 C         141.8807  140.3192  168.7834 C.2     1  UNL1        0.0883
     40 C         140.4970  140.0890  169.3148 C.3     1  UNL1        0.1174
     41 C         139.7457  141.2138  169.9630 C.2     1  UNL1        0.2137
     42 O         138.3620  140.9836  170.4943 O.2     1  UNL1       -0.2877
     43 C         140.3782  142.5689  170.0799 C.2     1  UNL1        0.1884
     44 O         139.6269  143.6939  170.7281 O.2     1  UNL1       -0.5019
     45 C         141.7619  142.7991  169.5485 C.2     1  UNL1        0.1377
     46 N         142.5132  141.6742  168.9003 N.2     1  UNL1       -0.2451
     47 H         138.7626  143.5501  171.0600 H       1  UNL1        0.2924
@<TRIPOS>BOND
     1    13    14    2
     2    14    15    1
     3    15    16    1
     4    16    17    1
     5    17    18   ar
     6    18    19   ar
     7    19    20   ar
     8    20    12    1
     9    12    10    1
    10    10     2    1
    11     2     3    1
    12     3     4    1
    13     4     5    1
    14     5     1    1
    15     1    25    1
    16    25    26    1
    17    26    27   ar
    18    27    28    1
    19    27    29   ar
    20    29    30   ar
    21    30    31   ar
    22    31    32   ar
    23    32    33   ar
    24    33    34   ar
    25    34    37    1
    26    37    38    1
    27    38    39    1
    28    39    40    1
    29    40    41    1
    30    41    42    2
    31    41    43    1
    32    43    44    1
    33    43    45    2
    34    45    46    1
    35    34    35   ar
    36    35    36   ar
    37     5     6    1
    38     6     7    1
    39     5     8    1
    40     8     9    1
    41    20    21   ar
    42    21    22   ar
    43    22    23    1
    44    23    14   am
    45    22    17   ar
    46     7     2    1
    47     9     2    1
    48    36    26   ar
    49    36    31   ar
    50    46    39    2
    51    10    11    1
    52    44    47    1
    53    23    24    1
@<TRIPOS>MOLECULE
*****
 47 53 0 0 0
SMALL
GASTEIGER

@<TRIPOS>ATOM
      1 C         142.3736  142.0640  167.3544 C.3     1  UNL1        0.0320
      2 C         144.0283  139.7510  163.8670 C.3     1  UNL1        0.0700
      3 C         143.8061  139.0667  165.1832 C.3     1  UNL1        0.0193
      4 C         143.2546  139.8376  166.3457 C.3     1  UNL1        0.0286
      5 C         142.9251  141.2930  166.1919 C.3     1  UNL1        0.0932
      6 C         143.1474  141.9773  164.8757 C.3     1  UNL1        0.0286
      7 C         143.6990  141.2062  163.7133 C.3     1  UNL1        0.0193
      8 O         143.2253  140.9121  165.5265 O.3     1  UNL1       -0.3572
      9 C         143.7240  140.2150  164.4754 C.3     1  UNL1        0.1562
     10 N         144.5799  138.9800  162.7046 N.3     1  UNL1       -0.2926
     11 H         144.8413  139.6643  161.9948 H       1  UNL1        0.1236
     12 C         143.7339  137.9476  162.0200 C.3     1  UNL1        0.1152
     13 O         137.6482  141.1164  158.3224 O.2     1  UNL1       -0.2707
     14 C         138.1962  140.2664  159.4301 C.2     1  UNL1        0.2718
     15 C         137.2639  139.6226  160.4130 C.3     1  UNL1        0.2898
     16 O         137.8119  138.7726  161.5208 O.3     1  UNL1       -0.4628
     17 C         139.2924  138.5664  161.6456 C.ar    1  UNL1        0.1708
     18 C         139.8405  137.7164  162.7533 C.ar    1  UNL1        0.0411
     19 C         141.3210  137.5101  162.8782 C.ar    1  UNL1        0.0193
     20 C         142.2534  138.1539  161.8952 C.ar    1  UNL1        0.0765
     21 N         141.7053  139.0039  160.7875 N.ar    1  UNL1       -0.2304
     22 C         140.2248  139.2101  160.6627 C.ar    1  UNL1        0.1682
     23 N         139.6767  140.0601  159.5549 N.am    1  UNL1       -0.2639
     24 H         140.2887  140.4827  158.9098 H       1  UNL1        0.1565
     25 C         140.8958  142.2953  167.4676 C.3     1  UNL1        0.0327
     26 C         139.9390  141.4078  166.7281 C.ar    1  UNL1        0.0261
     27 C         139.7029  140.0030  167.1981 C.ar    1  UNL1        0.1566
     28 F         140.4238  139.4857  168.4076 F       1  UNL1       -0.2028
     29 C         138.7461  139.1156  166.4587 C.ar    1  UNL1        0.1281
     30 N         138.0252  139.6329  165.2492 N.ar    1  UNL1       -0.2400
     31 C         138.2612  141.0376  164.7792 C.ar    1  UNL1        0.0990
     32 C         137.5404  141.5549  163.5698 C.ar    1  UNL1        0.0254
     33 C         137.7764  142.9597  163.0997 C.ar    1  UNL1        0.0593
     34 C         138.7333  143.8472  163.8392 C.ar    1  UNL1        0.2253
     35 N         139.4542  143.3299  165.0486 N.ar    1  UNL1       -0.2104
     36 C         139.2181  141.9251  165.5187 C.ar    1  UNL1        0.1002
     37 O         138.9693  145.2519  163.3692 O.3     1  UNL1       -0.4539
     38 C         139.5287  145.5006  161.9998 C.3     1  UNL1        0.2486
     39 C         140.7069  144.7082  161.5156 C.2     1  UNL1        0.0883
     40 C         142.0453  144.8779  162.1712 C.3     1  UNL1        0.1174
     41 C         143.2234  144.0856  161.6871 C.2     1  UNL1        0.2137
     42 O         144.5618  144.2552  162.3427 O.2     1  UNL1       -0.2877
     43 C         143.0630  143.1237  160.5475 C.2     1  UNL1        0.1884
     44 O         144.2411  142.3313  160.0633 O.2     1  UNL1       -0.5019
     45 C         141.7245  142.9540  159.8919 C.2     1  UNL1        0.1377
     46 N         140.5465  143.7463  160.3760 N.2     1  UNL1       -0.2451
     47 H         145.0772  142.4373  160.4728 H       1  UNL1        0.2924
@<TRIPOS>BOND
     1    13    14    2
     2    14    15    1
     3    15    16    1
     4    16    17    1
     5    17    18   ar
     6    18    19   ar
     7    19    20   ar
     8    20    12    1
     9    12    10    1
    10    10     2    1
    11     2     3    1
    12     3     4    1
    13     4     5    1
    14     5     1    1
    15     1    25    1
    16    25    26    1
    17    26    27   ar
    18    27    28    1
    19    27    29   ar
    20    29    30   ar
    21    30    31   ar
    22    31    32   ar
    23    32    33   ar
    24    33    34   ar
    25    34    37    1
    26    37    38    1
    27    38    39    1
    28    39    40    1
    29    40    41    1
    30    41    42    2
    31    41    43    1
    32    43    44    1
    33    43    45    2
    34    45    46    1
    35    34    35   ar
    36    35    36   ar
    37     5     6    1
    38     6     7    1
    39     5     8    1
    40     8     9    1
    41    20    21   ar
    42    21    22   ar
    43    22    23    1
    44    23    14   am
    45    22    17   ar
    46     7     2    1
    47     9     2    1
    48    36    26   ar
    49    36    31   ar
    50    46    39    2
    51    10    11    1
    52    44    47    1
    53    23    24    1
@<TRIPOS>MOLECULE
*****
 47 53 0 0 0
SMALL
GASTEIGER

@<TRIPOS>ATOM
      1 C         143.1848  144.1676  163.4295 C.3     1  UNL1        0.0320
      2 C         144.3487  140.0484  162.0412 C.3     1  UNL1        0.0700
      3 C         143.8297  141.0532  161.0558 C.3     1  UNL1        0.0193
      4 C         143.4418  142.4262  161.5185 C.3     1  UNL1        0.0286
      5 C         143.5728  142.7946  162.9667 C.3     1  UNL1        0.0932
      6 C         144.0918  141.7898  163.9522 C.3     1  UNL1        0.0286
      7 C         144.4797  140.4167  163.4894 C.3     1  UNL1        0.0193
      8 O         143.7980  142.0299  162.7605 O.3     1  UNL1       -0.3572
      9 C         144.1488  140.7883  162.3421 C.3     1  UNL1        0.1562
     10 N         144.7367  138.6753  161.5785 N.3     1  UNL1       -0.2926
     11 H         145.2569  138.7936  160.7091 H       1  UNL1        0.1236
     12 C         143.6780  137.6463  161.3131 C.3     1  UNL1        0.1152
     13 O         137.2191  140.5849  158.0888 O.2     1  UNL1       -0.2707
     14 C         137.9224  139.9770  159.2659 C.2     1  UNL1        0.2718
     15 C         137.1762  139.7407  160.5455 C.3     1  UNL1        0.2898
     16 O         137.8796  139.1328  161.7226 O.3     1  UNL1       -0.4628
     17 C         139.3292  138.7612  161.6203 C.ar    1  UNL1        0.1708
     18 C         140.0325  138.1533  162.7974 C.ar    1  UNL1        0.0411
     19 C         141.4821  137.7816  162.6951 C.ar    1  UNL1        0.0193
     20 C         142.2284  138.0179  161.4155 C.ar    1  UNL1        0.0765
     21 N         141.5251  138.6258  160.2383 N.ar    1  UNL1       -0.2304
     22 C         140.0754  138.9974  160.3407 C.ar    1  UNL1        0.1682
     23 N         139.3720  139.6053  159.1636 N.am    1  UNL1       -0.2639
     24 H         139.8618  139.7604  158.3237 H       1  UNL1        0.1565
     25 C         142.0147  144.3458  164.3509 C.3     1  UNL1        0.0327
     26 C         140.6223  144.0970  163.8517 C.ar    1  UNL1        0.0261
     27 C         139.9851  145.0608  162.8950 C.ar    1  UNL1        0.1566
     28 F         140.7404  146.2734  162.4376 F       1  UNL1       -0.2028
     29 C         138.5927  144.8121  162.3957 C.ar    1  UNL1        0.1281
     30 N         137.8374  143.5995  162.8532 N.ar    1  UNL1       -0.2400
     31 C         138.4745  142.6357  163.8098 C.ar    1  UNL1        0.0990
     32 C         137.7191  141.4232  164.2672 C.ar    1  UNL1        0.0254
     33 C         138.3563  140.4594  165.2239 C.ar    1  UNL1        0.0593
     34 C         139.7487  140.7082  165.7231 C.ar    1  UNL1        0.2253
     35 N         140.5040  141.9207  165.2657 N.ar    1  UNL1       -0.2104
     36 C         139.8669  142.8845  164.3091 C.ar    1  UNL1        0.1002
     37 O         140.3858  139.7444  166.6798 O.3     1  UNL1       -0.4539
     38 C         140.2048  139.9246  168.1579 C.3     1  UNL1        0.2486
     39 C         141.0208  140.9452  168.8945 C.2     1  UNL1        0.0883
     40 C         140.4173  142.2706  169.2539 C.3     1  UNL1        0.1174
     41 C         141.2332  143.2912  169.9905 C.2     1  UNL1        0.2137
     42 O         140.6297  144.6165  170.3499 O.2     1  UNL1       -0.2877
     43 C         142.6526  142.9864  170.3676 C.2     1  UNL1        0.1884
     44 O         143.4686  144.0070  171.1043 O.2     1  UNL1       -0.5019
     45 C         143.2561  141.6611  170.0082 C.2     1  UNL1        0.1377
     46 N         142.4402  140.6404  169.2716 N.2     1  UNL1       -0.2451
     47 H         143.0917  144.8350  171.3288 H       1  UNL1        0.2924
@<TRIPOS>BOND
     1    13    14    2
     2    14    15    1
     3    15    16    1
     4    16    17    1
     5    17    18   ar
     6    18    19   ar
     7    19    20   ar
     8    20    12    1
     9    12    10    1
    10    10     2    1
    11     2     3    1
    12     3     4    1
    13     4     5    1
    14     5     1    1
    15     1    25    1
    16    25    26    1
    17    26    27   ar
    18    27    28    1
    19    27    29   ar
    20    29    30   ar
    21    30    31   ar
    22    31    32   ar
    23    32    33   ar
    24    33    34   ar
    25    34    37    1
    26    37    38    1
    27    38    39    1
    28    39    40    1
    29    40    41    1
    30    41    42    2
    31    41    43    1
    32    43    44    1
    33    43    45    2
    34    45    46    1
    35    34    35   ar
    36    35    36   ar
    37     5     6    1
    38     6     7    1
    39     5     8    1
    40     8     9    1
    41    20    21   ar
    42    21    22   ar
    43    22    23    1
    44    23    14   am
    45    22    17   ar
    46     7     2    1
    47     9     2    1
    48    36    26   ar
    49    36    31   ar
    50    46    39    2
    51    10    11    1
    52    44    47    1
    53    23    24    1
@<TRIPOS>MOLECULE
*****
 47 53 0 0 0
SMALL
GASTEIGER

@<TRIPOS>ATOM
      1 C         138.9718  145.0317  162.6596 C.3     1  UNL1        0.0320
      2 C         138.2330  141.1060  164.7317 C.3     1  UNL1        0.0700
      3 C         139.1119  142.1388  165.3728 C.3     1  UNL1        0.0193
      4 C         139.3582  143.4473  164.6821 C.3     1  UNL1        0.0286
      5 C         138.7255  143.7231  163.3503 C.3     1  UNL1        0.0932
      6 C         137.8466  142.6904  162.7092 C.3     1  UNL1        0.0286
      7 C         137.6003  141.3818  163.4000 C.3     1  UNL1        0.0193
      8 O         138.5612  142.9915  163.6904 O.3     1  UNL1       -0.3572
      9 C         138.3385  141.8083  164.3149 C.3     1  UNL1        0.1562
     10 N         137.9867  139.7975  165.4224 N.3     1  UNL1       -0.2926
     11 H         138.3700  139.8847  166.3636 H       1  UNL1        0.1236
     12 C         138.5408  138.5287  164.8450 C.3     1  UNL1        0.1152
     13 O         143.1737  138.4127  158.5783 O.2     1  UNL1       -0.2707
     14 C         143.0047  138.4376  160.0685 C.2     1  UNL1        0.2718
     15 C         144.2109  138.4488  160.9601 C.3     1  UNL1        0.2898
     16 O         144.0418  138.4738  162.4503 O.3     1  UNL1       -0.4628
     17 C         142.6666  138.4875  163.0490 C.ar    1  UNL1        0.1708
     18 C         142.4975  138.5124  164.5392 C.ar    1  UNL1        0.0411
     19 C         141.1223  138.5262  165.1379 C.ar    1  UNL1        0.0193
     20 C         139.9160  138.5150  164.2464 C.ar    1  UNL1        0.0765
     21 N         140.0851  138.4901  162.7561 N.ar    1  UNL1       -0.2304
     22 C         141.4604  138.4763  162.1574 C.ar    1  UNL1        0.1682
     23 N         141.6295  138.4514  160.6672 N.am    1  UNL1       -0.2639
     24 H         140.8378  138.4440  160.0821 H       1  UNL1        0.1565
     25 C         140.3750  145.5246  162.4650 C.3     1  UNL1        0.0327
     26 C         141.3095  144.7864  161.5529 C.ar    1  UNL1        0.0261
     27 C         141.1866  144.9436  160.0662 C.ar    1  UNL1        0.1566
     28 F         140.1291  145.8389  159.4916 F       1  UNL1       -0.2028
     29 C         142.1211  144.2054  159.1542 C.ar    1  UNL1        0.1281
     30 N         143.1785  143.3101  159.7288 N.ar    1  UNL1       -0.2400
     31 C         143.3015  143.1529  161.2155 C.ar    1  UNL1        0.0990
     32 C         144.3590  142.2576  161.7901 C.ar    1  UNL1        0.0254
     33 C         144.4819  142.1005  163.2768 C.ar    1  UNL1        0.0593
     34 C         143.5474  142.8387  164.1888 C.ar    1  UNL1        0.2253
     35 N         142.4900  143.7340  163.6142 N.ar    1  UNL1       -0.2104
     36 C         142.3670  143.8911  162.1276 C.ar    1  UNL1        0.1002
     37 O         143.6704  142.6815  165.6755 O.3     1  UNL1       -0.4539
     38 C         143.0258  141.5140  166.3621 C.3     1  UNL1        0.2486
     39 C         142.4399  141.6801  167.7330 C.2     1  UNL1        0.0883
     40 C         143.0809  142.6163  168.7141 C.3     1  UNL1        0.1174
     41 C         142.4951  142.7824  170.0849 C.2     1  UNL1        0.2137
     42 O         143.1361  143.7186  171.0661 O.2     1  UNL1       -0.2877
     43 C         141.2683  142.0124  170.4746 C.2     1  UNL1        0.1884
     44 O         140.6824  142.1785  171.8455 O.2     1  UNL1       -0.5019
     45 C         140.6273  141.0762  169.4935 C.2     1  UNL1        0.1377
     46 N         141.2131  140.9101  168.1226 N.2     1  UNL1       -0.2451
     47 H         141.0828  142.7633  172.4584 H       1  UNL1        0.2924
@<TRIPOS>BOND
     1    13    14    2
     2    14    15    1
     3    15    16    1
     4    16    17    1
     5    17    18   ar
     6    18    19   ar
     7    19    20   ar
     8    20    12    1
     9    12    10    1
    10    10     2    1
    11     2     3    1
    12     3     4    1
    13     4     5    1
    14     5     1    1
    15     1    25    1
    16    25    26    1
    17    26    27   ar
    18    27    28    1
    19    27    29   ar
    20    29    30   ar
    21    30    31   ar
    22    31    32   ar
    23    32    33   ar
    24    33    34   ar
    25    34    37    1
    26    37    38    1
    27    38    39    1
    28    39    40    1
    29    40    41    1
    30    41    42    2
    31    41    43    1
    32    43    44    1
    33    43    45    2
    34    45    46    1
    35    34    35   ar
    36    35    36   ar
    37     5     6    1
    38     6     7    1
    39     5     8    1
    40     8     9    1
    41    20    21   ar
    42    21    22   ar
    43    22    23    1
    44    23    14   am
    45    22    17   ar
    46     7     2    1
    47     9     2    1
    48    36    26   ar
    49    36    31   ar
    50    46    39    2
    51    10    11    1
    52    44    47    1
    53    23    24    1
@<TRIPOS>MOLECULE
*****
 47 53 0 0 0
SMALL
GASTEIGER

@<TRIPOS>ATOM
      1 C         137.9494  143.9867  164.6471 C.3     1  UNL1        0.0320
      2 C         138.0403  139.8468  162.8857 C.3     1  UNL1        0.0700
      3 C         138.4631  140.0661  164.3081 C.3     1  UNL1        0.0193
      4 C         138.4328  141.4461  164.8952 C.3     1  UNL1        0.0286
      5 C         137.9797  142.6068  164.0600 C.3     1  UNL1        0.0932
      6 C         137.5569  142.3874  162.6376 C.3     1  UNL1        0.0286
      7 C         137.5872  141.0074  162.0505 C.3     1  UNL1        0.0193
      8 O         137.9793  141.8690  163.6945 O.3     1  UNL1       -0.3572
      9 C         138.0067  140.6212  163.1635 C.3     1  UNL1        0.1562
     10 N         138.0706  138.4668  162.2985 N.3     1  UNL1       -0.2926
     11 H         138.3307  137.8315  163.0529 H       1  UNL1        0.1236
     12 C         138.9787  138.1628  161.1439 C.3     1  UNL1        0.1152
     13 O         143.2578  143.6985  157.7095 O.2     1  UNL1       -0.2707
     14 C         143.1315  142.5872  158.7091 C.2     1  UNL1        0.2718
     15 C         144.3052  142.2099  159.5634 C.3     1  UNL1        0.2898
     16 O         144.1789  141.0987  160.5630 O.3     1  UNL1       -0.4628
     17 C         142.8789  140.3647  160.7082 C.ar    1  UNL1        0.1708
     18 C         142.7526  139.2534  161.7078 C.ar    1  UNL1        0.0411
     19 C         141.4526  138.5195  161.8531 C.ar    1  UNL1        0.0193
     20 C         140.2787  138.8967  160.9987 C.ar    1  UNL1        0.0765
     21 N         140.4050  140.0080  159.9991 N.ar    1  UNL1       -0.2304
     22 C         141.7052  140.7420  159.8539 C.ar    1  UNL1        0.1682
     23 N         141.8315  141.8533  158.8543 N.am    1  UNL1       -0.2639
     24 H         141.0611  142.1009  158.2936 H       1  UNL1        0.1565
     25 C         139.2172  144.7797  164.7648 C.3     1  UNL1        0.0327
     26 C         140.2614  144.6883  163.6919 C.ar    1  UNL1        0.0261
     27 C         139.9987  145.2771  162.3375 C.ar    1  UNL1        0.1566
     28 F         138.6918  145.9575  162.0562 F       1  UNL1       -0.2028
     29 C         141.0429  145.1857  161.2646 C.ar    1  UNL1        0.1281
     30 N         142.3498  144.5053  161.5460 N.ar    1  UNL1       -0.2400
     31 C         142.6125  143.9165  162.9003 C.ar    1  UNL1        0.0990
     32 C         143.9194  143.2361  163.1816 C.ar    1  UNL1        0.0254
     33 C         144.1821  142.6473  164.5360 C.ar    1  UNL1        0.0593
     34 C         143.1379  142.7387  165.6090 C.ar    1  UNL1        0.2253
     35 N         141.8310  143.4190  165.3276 N.ar    1  UNL1       -0.2104
     36 C         141.5683  144.0079  163.9733 C.ar    1  UNL1        0.1002
     37 O         143.4006  142.1498  166.9633 O.3     1  UNL1       -0.4539
     38 C         142.9276  140.7626  167.2825 C.3     1  UNL1        0.2486
     39 C         141.6883  140.5632  168.1037 C.2     1  UNL1        0.0883
     40 C         141.7100  140.8497  169.5760 C.3     1  UNL1        0.1174
     41 C         140.4708  140.6503  170.3972 C.2     1  UNL1        0.2137
     42 O         140.4925  140.9368  171.8694 O.2     1  UNL1       -0.2877
     43 C         139.2098  140.1644  169.7462 C.2     1  UNL1        0.1884
     44 O         137.9705  139.9650  170.5674 O.2     1  UNL1       -0.5019
     45 C         139.1881  139.8779  168.2740 C.2     1  UNL1        0.1377
     46 N         140.4273  140.0773  167.4527 N.2     1  UNL1       -0.2451
     47 H         137.9840  140.1439  171.4871 H       1  UNL1        0.2924
@<TRIPOS>BOND
     1    13    14    2
     2    14    15    1
     3    15    16    1
     4    16    17    1
     5    17    18   ar
     6    18    19   ar
     7    19    20   ar
     8    20    12    1
     9    12    10    1
    10    10     2    1
    11     2     3    1
    12     3     4    1
    13     4     5    1
    14     5     1    1
    15     1    25    1
    16    25    26    1
    17    26    27   ar
    18    27    28    1
    19    27    29   ar
    20    29    30   ar
    21    30    31   ar
    22    31    32   ar
    23    32    33   ar
    24    33    34   ar
    25    34    37    1
    26    37    38    1
    27    38    39    1
    28    39    40    1
    29    40    41    1
    30    41    42    2
    31    41    43    1
    32    43    44    1
    33    43    45    2
    34    45    46    1
    35    34    35   ar
    36    35    36   ar
    37     5     6    1
    38     6     7    1
    39     5     8    1
    40     8     9    1
    41    20    21   ar
    42    21    22   ar
    43    22    23    1
    44    23    14   am
    45    22    17   ar
    46     7     2    1
    47     9     2    1
    48    36    26   ar
    49    36    31   ar
    50    46    39    2
    51    10    11    1
    52    44    47    1
    53    23    24    1
