@<TRIPOS>MOLECULE
*****
 38 42 0 0 0
SMALL
GASTEIGER

@<TRIPOS>ATOM
      1 N         142.4241  141.3721  167.1633 N.ar    1  UNL1       -0.2815
      2 C         142.5732  141.9753  168.5286 C.ar    1  UNL1        0.3316
      3 O         143.7053  142.8448  168.9895 O.2     1  UNL1       -0.2463
      4 N         141.3915  141.5563  169.3520 N.ar    1  UNL1       -0.2765
      5 C         141.1343  141.9333  170.7809 C.3     1  UNL1        0.1352
      6 C         140.5120  140.6942  168.4956 C.ar    1  UNL1        0.0989
      7 C         139.2126  139.9982  168.7728 C.ar    1  UNL1        0.1175
      8 N         138.5513  139.1883  167.6973 N.ar    1  UNL1       -0.2422
      9 C         139.1895  139.0745  166.3446 C.ar    1  UNL1        0.0850
     10 C         138.5282  138.2645  165.2691 C.ar    1  UNL1        0.0488
     11 C         139.1664  138.1507  163.9164 C.ar    1  UNL1        0.1416
     12 F         138.5051  137.3408  162.8409 F       1  UNL1       -0.2041
     13 C         140.4659  138.8468  163.6392 C.ar    1  UNL1        0.0291
     14 C         141.1272  139.6567  164.7147 C.ar    1  UNL1        0.0053
     15 C         140.4890  139.7705  166.0674 C.ar    1  UNL1        0.0352
     16 C         141.1502  140.5804  167.1429 C.ar    1  UNL1        0.0826
     17 C         141.1041  138.7329  162.2866 C.ar    1  UNL1        0.0214
     18 C         142.2442  137.7818  162.0728 C.ar    1  UNL1        0.0045
     19 C         142.8824  137.6679  160.7201 C.ar    1  UNL1        0.0345
     20 C         142.3805  138.5053  159.5812 C.ar    1  UNL1        0.1342
     21 N         141.2405  139.4564  159.7950 N.ar    1  UNL1       -0.2290
     22 C         140.6023  139.5702  161.1477 C.ar    1  UNL1        0.1003
     23 N         143.0187  138.3914  158.2285 N.am    1  UNL1       -0.2693
     24 C         142.2544  137.7890  157.0869 C.2     1  UNL1        0.2272
     25 O         140.8521  137.3005  157.2981 O.2     1  UNL1       -0.2747
     26 H         143.9391  138.7121  158.0899 H       1  UNL1        0.1563
     27 C         142.8926  137.6752  155.7343 C.3     1  UNL1        0.0868
     28 C         144.0084  136.6979  155.5113 C.3     1  UNL1        0.0269
     29 C         143.6993  135.2824  155.1230 C.3     1  UNL1        0.0727
     30 N         142.9591  134.3885  156.0734 N.3     1  UNL1       -0.2703
     31 C         141.7384  133.6494  155.6114 C.3     1  UNL1        0.0897
     32 C         143.4398  134.2338  157.4859 C.3     1  UNL1        0.0897
     33 C         144.7340  141.7595  164.4013 C.3     1  UNL1        0.1191
     34 C         144.1412  140.5916  165.1325 C.3     1  UNL1        0.0524
     35 C         143.3809  141.5325  166.0193 C.3     1  UNL1        0.0947
     36 C         143.9737  142.7005  165.2881 C.3     1  UNL1        0.0524
     37 C         145.1712  142.2066  161.8796 C.3     1  UNL1        0.1740
     38 O         145.6907  141.9199  163.2573 O.3     1  UNL1       -0.3534
@<TRIPOS>BOND
     1    37    38    1
     2    33    38    1
     3    33    34    1
     4    34    35    1
     5    35     1    1
     6     1     2   ar
     7     2     3    2
     8     2     4   ar
     9     4     5    1
    10     4     6   ar
    11     6     7   ar
    12     7     8   ar
    13     8     9   ar
    14     9    10   ar
    15    10    11   ar
    16    11    12    1
    17    11    13   ar
    18    13    17    1
    19    17    18   ar
    20    18    19   ar
    21    19    20   ar
    22    20    23    1
    23    23    24   am
    24    24    25    2
    25    24    27    1
    26    27    28    1
    27    28    29    1
    28    29    30    1
    29    30    31    1
    30    30    32    1
    31    20    21   ar
    32    21    22   ar
    33    13    14   ar
    34    14    15   ar
    35    15    16   ar
    36    35    36    1
    37    36    33    1
    38    16     1   ar
    39    16     6   ar
    40    15     9   ar
    41    22    17   ar
    42    23    26    1
@<TRIPOS>MOLECULE
*****
 38 42 0 0 0
SMALL
GASTEIGER

@<TRIPOS>ATOM
      1 N         139.7512  139.7132  166.2667 N.ar    1  UNL1       -0.2815
      2 C         138.9233  139.5562  167.5076 C.ar    1  UNL1        0.3316
      3 O         137.6707  138.7408  167.6345 O.2     1  UNL1       -0.2463
      4 N         139.5679  140.3578  168.5993 N.ar    1  UNL1       -0.2765
      5 C         139.0731  140.4847  170.0097 C.3     1  UNL1        0.1352
      6 C         140.7943  141.0101  168.0332 C.ar    1  UNL1        0.0989
      7 C         141.8224  141.9155  168.6441 C.ar    1  UNL1        0.1175
      8 N         142.9638  142.4224  167.8134 N.ar    1  UNL1       -0.2422
      9 C         143.0771  142.0239  166.3717 C.ar    1  UNL1        0.0850
     10 C         144.2186  142.5309  165.5410 C.ar    1  UNL1        0.0488
     11 C         144.3319  142.1325  164.0993 C.ar    1  UNL1        0.1416
     12 F         145.4733  142.6394  163.2685 F       1  UNL1       -0.2041
     13 C         143.3037  141.2271  163.4883 C.ar    1  UNL1        0.0291
     14 C         142.1623  140.7202  164.3191 C.ar    1  UNL1        0.0053
     15 C         142.0490  141.1186  165.7608 C.ar    1  UNL1        0.0352
     16 C         140.9076  140.6117  166.5915 C.ar    1  UNL1        0.0826
     17 C         143.4170  140.8287  162.0467 C.ar    1  UNL1        0.0214
     18 C         142.8127  141.6931  160.9800 C.ar    1  UNL1        0.0045
     19 C         142.9260  141.2947  159.5383 C.ar    1  UNL1        0.0345
     20 C         143.6435  140.0319  159.1633 C.ar    1  UNL1        0.1342
     21 N         144.2478  139.1676  160.2300 N.ar    1  UNL1       -0.2290
     22 C         144.1345  139.5660  161.6717 C.ar    1  UNL1        0.1003
     23 N         143.7568  139.6335  157.7216 N.am    1  UNL1       -0.2693
     24 C         143.0088  138.4368  157.2132 C.2     1  UNL1        0.2272
     25 O         142.1476  137.6385  158.1465 O.2     1  UNL1       -0.2747
     26 H         144.3221  140.1574  157.1091 H       1  UNL1        0.1563
     27 C         143.1221  138.0384  155.7715 C.3     1  UNL1        0.0868
     28 C         143.6722  136.6915  155.4066 C.3     1  UNL1        0.0269
     29 C         142.7388  135.5601  155.0926 C.3     1  UNL1        0.0727
     30 N         142.6434  134.3864  156.0219 N.3     1  UNL1       -0.2703
     31 C         141.8109  133.1970  155.6450 C.3     1  UNL1        0.0897
     32 C         143.3806  134.4023  157.3282 C.3     1  UNL1        0.0897
     33 C         139.0769  138.1900  163.0512 C.3     1  UNL1        0.1191
     34 C         138.6641  139.4626  163.7295 C.3     1  UNL1        0.0524
     35 C         139.4719  139.0823  164.9348 C.3     1  UNL1        0.0947
     36 C         139.8848  137.8097  164.2564 C.3     1  UNL1        0.0524
     37 C         139.3213  138.1929  160.4646 C.3     1  UNL1        0.1740
     38 O         138.7976  137.5592  161.7192 O.3     1  UNL1       -0.3534
@<TRIPOS>BOND
     1    37    38    1
     2    33    38    1
     3    33    34    1
     4    34    35    1
     5    35     1    1
     6     1     2   ar
     7     2     3    2
     8     2     4   ar
     9     4     5    1
    10     4     6   ar
    11     6     7   ar
    12     7     8   ar
    13     8     9   ar
    14     9    10   ar
    15    10    11   ar
    16    11    12    1
    17    11    13   ar
    18    13    17    1
    19    17    18   ar
    20    18    19   ar
    21    19    20   ar
    22    20    23    1
    23    23    24   am
    24    24    25    2
    25    24    27    1
    26    27    28    1
    27    28    29    1
    28    29    30    1
    29    30    31    1
    30    30    32    1
    31    20    21   ar
    32    21    22   ar
    33    13    14   ar
    34    14    15   ar
    35    15    16   ar
    36    35    36    1
    37    36    33    1
    38    16     1   ar
    39    16     6   ar
    40    15     9   ar
    41    22    17   ar
    42    23    26    1
@<TRIPOS>MOLECULE
*****
 38 42 0 0 0
SMALL
GASTEIGER

@<TRIPOS>ATOM
      1 N         142.5594  141.4238  167.1196 N.ar    1  UNL1       -0.2815
      2 C         142.8094  142.0390  168.4646 C.ar    1  UNL1        0.3316
      3 O         143.9871  142.8887  168.8403 O.2     1  UNL1       -0.2463
      4 N         141.6750  141.6555  169.3678 N.ar    1  UNL1       -0.2765
      5 C         141.5190  142.0542  170.8054 C.3     1  UNL1        0.1352
      6 C         140.7238  140.8032  168.5811 C.ar    1  UNL1        0.0989
      7 C         139.4306  140.1390  168.9505 C.ar    1  UNL1        0.1175
      8 N         138.6841  139.3316  167.9303 N.ar    1  UNL1       -0.2422
      9 C         139.2307  139.1884  166.5408 C.ar    1  UNL1        0.0850
     10 C         138.4840  138.3810  165.5207 C.ar    1  UNL1        0.0488
     11 C         139.0306  138.2378  164.1312 C.ar    1  UNL1        0.1416
     12 F         138.2841  137.4304  163.1110 F       1  UNL1       -0.2041
     13 C         140.3239  138.9021  163.7618 C.ar    1  UNL1        0.0291
     14 C         141.0705  139.7094  164.7820 C.ar    1  UNL1        0.0053
     15 C         140.5239  139.8526  166.1715 C.ar    1  UNL1        0.0352
     16 C         141.2704  140.6600  167.1916 C.ar    1  UNL1        0.0826
     17 C         140.8705  138.7589  162.3723 C.ar    1  UNL1        0.0214
     18 C         142.1225  137.9669  162.1368 C.ar    1  UNL1        0.0045
     19 C         142.6691  137.8237  160.7473 C.ar    1  UNL1        0.0345
     20 C         141.9637  138.4725  159.5933 C.ar    1  UNL1        0.1342
     21 N         140.7118  139.2645  159.8289 N.ar    1  UNL1       -0.2290
     22 C         140.1652  139.4077  161.2184 C.ar    1  UNL1        0.1003
     23 N         142.5103  138.3294  158.2038 N.am    1  UNL1       -0.2693
     24 C         143.2180  139.4813  157.5539 C.2     1  UNL1        0.2272
     25 O         143.3790  140.7763  158.2934 O.2     1  UNL1       -0.2747
     26 H         142.4047  137.4794  157.7184 H       1  UNL1        0.1563
     27 C         143.7646  139.3381  156.1644 C.3     1  UNL1        0.0868
     28 C         144.4549  140.4962  155.5069 C.3     1  UNL1        0.0269
     29 C         145.9510  140.5158  155.4010 C.3     1  UNL1        0.0727
     30 N         146.6699  141.8127  155.1743 N.3     1  UNL1       -0.2703
     31 C         146.0352  142.8862  154.3408 C.3     1  UNL1        0.0897
     32 C         148.0234  142.0359  155.7809 C.3     1  UNL1        0.0897
     33 C         144.6930  141.7290  164.2095 C.3     1  UNL1        0.1191
     34 C         144.1365  140.5829  165.0012 C.3     1  UNL1        0.0524
     35 C         143.4431  141.5502  165.9142 C.3     1  UNL1        0.0947
     36 C         143.9997  142.6963  165.1225 C.3     1  UNL1        0.0524
     37 C         144.9792  142.1769  161.6664 C.3     1  UNL1        0.1740
     38 O         145.5768  141.8554  163.0041 O.3     1  UNL1       -0.3534
@<TRIPOS>BOND
     1    37    38    1
     2    33    38    1
     3    33    34    1
     4    34    35    1
     5    35     1    1
     6     1     2   ar
     7     2     3    2
     8     2     4   ar
     9     4     5    1
    10     4     6   ar
    11     6     7   ar
    12     7     8   ar
    13     8     9   ar
    14     9    10   ar
    15    10    11   ar
    16    11    12    1
    17    11    13   ar
    18    13    17    1
    19    17    18   ar
    20    18    19   ar
    21    19    20   ar
    22    20    23    1
    23    23    24   am
    24    24    25    2
    25    24    27    1
    26    27    28    1
    27    28    29    1
    28    29    30    1
    29    30    31    1
    30    30    32    1
    31    20    21   ar
    32    21    22   ar
    33    13    14   ar
    34    14    15   ar
    35    15    16   ar
    36    35    36    1
    37    36    33    1
    38    16     1   ar
    39    16     6   ar
    40    15     9   ar
    41    22    17   ar
    42    23    26    1
@<TRIPOS>MOLECULE
*****
 38 42 0 0 0
SMALL
GASTEIGER

@<TRIPOS>ATOM
      1 N         139.6519  139.7128  166.5323 N.ar    1  UNL1       -0.2815
      2 C         138.8336  139.5361  167.7769 C.ar    1  UNL1        0.3316
      3 O         137.5920  138.7042  167.9051 O.2     1  UNL1       -0.2463
      4 N         139.4750  140.3372  168.8709 N.ar    1  UNL1       -0.2765
      5 C         138.9874  140.4471  170.2852 C.3     1  UNL1        0.1352
      6 C         140.6897  141.0091  168.3024 C.ar    1  UNL1        0.0989
      7 C         141.7103  141.9223  168.9141 C.ar    1  UNL1        0.1175
      8 N         142.8402  142.4498  168.0804 N.ar    1  UNL1       -0.2422
      9 C         142.9495  142.0639  166.6350 C.ar    1  UNL1        0.0850
     10 C         144.0795  142.5914  165.8013 C.ar    1  UNL1        0.0488
     11 C         144.1888  142.2055  164.3559 C.ar    1  UNL1        0.1416
     12 F         145.3187  142.7329  163.5222 F       1  UNL1       -0.2041
     13 C         143.1681  141.2922  163.7442 C.ar    1  UNL1        0.0291
     14 C         142.0382  140.7647  164.5779 C.ar    1  UNL1        0.0053
     15 C         141.9289  141.1506  166.0233 C.ar    1  UNL1        0.0352
     16 C         140.7990  140.6232  166.8570 C.ar    1  UNL1        0.0826
     17 C         143.2774  140.9063  162.2988 C.ar    1  UNL1        0.0214
     18 C         144.0265  139.6668  161.9080 C.ar    1  UNL1        0.0045
     19 C         144.1358  139.2809  160.4626 C.ar    1  UNL1        0.0345
     20 C         143.4960  140.1345  159.4080 C.ar    1  UNL1        0.1342
     21 N         142.7469  141.3739  159.7988 N.ar    1  UNL1       -0.2290
     22 C         142.6376  141.7598  161.2442 C.ar    1  UNL1        0.1003
     23 N         143.6053  139.7487  157.9626 N.am    1  UNL1       -0.2693
     24 C         144.4685  140.5517  157.0352 C.2     1  UNL1        0.2272
     25 O         145.2224  141.7405  157.5531 O.2     1  UNL1       -0.2747
     26 H         143.1105  138.9684  157.6227 H       1  UNL1        0.1563
     27 C         144.5778  140.1658  155.5898 C.3     1  UNL1        0.0868
     28 C         145.9031  140.2415  154.8915 C.3     1  UNL1        0.0269
     29 C         146.2795  141.4768  154.1285 C.3     1  UNL1        0.0727
     30 N         147.2818  142.4353  154.7002 N.3     1  UNL1       -0.2703
     31 C         147.2396  143.8839  154.3135 C.3     1  UNL1        0.0897
     32 C         148.3264  141.9450  155.6585 C.3     1  UNL1        0.0897
     33 C         138.9766  138.2062  163.3091 C.3     1  UNL1        0.1191
     34 C         138.5586  139.4721  163.9967 C.3     1  UNL1        0.0524
     35 C         139.3721  139.0888  165.1972 C.3     1  UNL1        0.0947
     36 C         139.7902  137.8229  164.5096 C.3     1  UNL1        0.0524
     37 C         139.3008  138.1667  160.7317 C.3     1  UNL1        0.1740
     38 O         138.6969  137.5822  161.9741 O.3     1  UNL1       -0.3534
@<TRIPOS>BOND
     1    37    38    1
     2    33    38    1
     3    33    34    1
     4    34    35    1
     5    35     1    1
     6     1     2   ar
     7     2     3    2
     8     2     4   ar
     9     4     5    1
    10     4     6   ar
    11     6     7   ar
    12     7     8   ar
    13     8     9   ar
    14     9    10   ar
    15    10    11   ar
    16    11    12    1
    17    11    13   ar
    18    13    17    1
    19    17    18   ar
    20    18    19   ar
    21    19    20   ar
    22    20    23    1
    23    23    24   am
    24    24    25    2
    25    24    27    1
    26    27    28    1
    27    28    29    1
    28    29    30    1
    29    30    31    1
    30    30    32    1
    31    20    21   ar
    32    21    22   ar
    33    13    14   ar
    34    14    15   ar
    35    15    16   ar
    36    35    36    1
    37    36    33    1
    38    16     1   ar
    39    16     6   ar
    40    15     9   ar
    41    22    17   ar
    42    23    26    1
@<TRIPOS>MOLECULE
*****
 38 42 0 0 0
SMALL
GASTEIGER

@<TRIPOS>ATOM
      1 N         138.6601  141.2478  158.6095 N.ar    1  UNL1       -0.2815
      2 C         138.2662  141.0261  157.1793 C.ar    1  UNL1        0.3316
      3 O         137.6682  139.7722  156.6136 O.2     1  UNL1       -0.2463
      4 N         138.5753  142.2786  156.4140 N.ar    1  UNL1       -0.2765
      5 C         138.3406  142.4971  154.9486 C.3     1  UNL1        0.1352
      6 C         139.1602  143.2744  157.3713 C.ar    1  UNL1        0.0989
      7 C         139.6519  144.6789  157.1827 C.ar    1  UNL1        0.1175
      8 N         140.1960  145.4462  158.3510 N.ar    1  UNL1       -0.2422
      9 C         140.2484  144.8091  159.7080 C.ar    1  UNL1        0.0850
     10 C         140.7925  145.5765  160.8763 C.ar    1  UNL1        0.0488
     11 C         140.8450  144.9394  162.2333 C.ar    1  UNL1        0.1416
     12 F         141.3890  145.7068  163.4016 F       1  UNL1       -0.2041
     13 C         140.3532  143.5349  162.4219 C.ar    1  UNL1        0.0291
     14 C         139.8092  142.7675  161.2535 C.ar    1  UNL1        0.0053
     15 C         139.7567  143.4046  159.8966 C.ar    1  UNL1        0.0352
     16 C         139.2126  142.6372  158.7282 C.ar    1  UNL1        0.0826
     17 C         140.4057  142.8977  163.7788 C.ar    1  UNL1        0.0214
     18 C         139.3043  141.9794  164.2193 C.ar    1  UNL1        0.0045
     19 C         139.3568  141.3423  165.5762 C.ar    1  UNL1        0.0345
     20 C         140.5105  141.6235  166.4927 C.ar    1  UNL1        0.1342
     21 N         141.6117  142.5417  166.0523 N.ar    1  UNL1       -0.2290
     22 C         141.5593  143.1788  164.6953 C.ar    1  UNL1        0.1003
     23 N         140.5629  140.9864  167.8497 N.am    1  UNL1       -0.2693
     24 C         141.6307  139.9813  168.1656 C.2     1  UNL1        0.2272
     25 O         142.6460  139.6134  167.1246 O.2     1  UNL1       -0.2747
     26 H         139.8965  141.2278  168.5329 H       1  UNL1        0.1563
     27 C         141.6832  139.3442  169.5225 C.3     1  UNL1        0.0868
     28 C         140.9077  139.9386  170.6607 C.3     1  UNL1        0.0269
     29 C         141.4011  141.1845  171.3346 C.3     1  UNL1        0.0727
     30 N         141.1458  142.5253  170.7121 N.3     1  UNL1       -0.2703
     31 C         139.7442  143.0493  170.6084 C.3     1  UNL1        0.0897
     32 C         142.2922  143.3418  170.1934 C.3     1  UNL1        0.0897
     33 C         138.3344  138.8494  161.3032 C.3     1  UNL1        0.1191
     34 C         137.4649  139.9321  160.7362 C.3     1  UNL1        0.0524
     35 C         138.5252  140.2544  159.7253 C.3     1  UNL1        0.0947
     36 C         139.3948  139.1716  160.2924 C.3     1  UNL1        0.0524
     37 C         139.0133  138.0167  163.6688 C.3     1  UNL1        0.1740
     38 O         138.1995  137.8560  162.4190 O.3     1  UNL1       -0.3534
@<TRIPOS>BOND
     1    37    38    1
     2    33    38    1
     3    33    34    1
     4    34    35    1
     5    35     1    1
     6     1     2   ar
     7     2     3    2
     8     2     4   ar
     9     4     5    1
    10     4     6   ar
    11     6     7   ar
    12     7     8   ar
    13     8     9   ar
    14     9    10   ar
    15    10    11   ar
    16    11    12    1
    17    11    13   ar
    18    13    17    1
    19    17    18   ar
    20    18    19   ar
    21    19    20   ar
    22    20    23    1
    23    23    24   am
    24    24    25    2
    25    24    27    1
    26    27    28    1
    27    28    29    1
    28    29    30    1
    29    30    31    1
    30    30    32    1
    31    20    21   ar
    32    21    22   ar
    33    13    14   ar
    34    14    15   ar
    35    15    16   ar
    36    35    36    1
    37    36    33    1
    38    16     1   ar
    39    16     6   ar
    40    15     9   ar
    41    22    17   ar
    42    23    26    1
@<TRIPOS>MOLECULE
*****
 38 42 0 0 0
SMALL
GASTEIGER

@<TRIPOS>ATOM
      1 N         140.0241  139.9820  166.7062 N.ar    1  UNL1       -0.2815
      2 C         139.3774  139.9203  168.0583 C.ar    1  UNL1        0.3316
      3 O         138.1375  139.1522  168.4084 O.2     1  UNL1       -0.2463
      4 N         140.1885  140.7616  168.9987 N.ar    1  UNL1       -0.2765
      5 C         139.9020  140.9825  170.4545 C.3     1  UNL1        0.1352
      6 C         141.3363  141.3432  168.2279 C.ar    1  UNL1        0.0989
      7 C         142.4609  142.2493  168.6332 C.ar    1  UNL1        0.1175
      8 N         143.4839  142.6735  167.6215 N.ar    1  UNL1       -0.2422
      9 C         143.3823  142.1917  166.2046 C.ar    1  UNL1        0.0850
     10 C         144.4053  142.6160  165.1930 C.ar    1  UNL1        0.0488
     11 C         144.3037  142.1342  163.7761 C.ar    1  UNL1        0.1416
     12 F         145.3267  142.5585  162.7644 F       1  UNL1       -0.2041
     13 C         143.1790  141.2281  163.3709 C.ar    1  UNL1        0.0291
     14 C         142.1561  140.8038  164.3825 C.ar    1  UNL1        0.0053
     15 C         142.2577  141.2856  165.7994 C.ar    1  UNL1        0.0352
     16 C         141.2347  140.8614  166.8110 C.ar    1  UNL1        0.0826
     17 C         143.0774  140.7463  161.9540 C.ar    1  UNL1        0.0214
     18 C         143.6839  139.4310  161.5638 C.ar    1  UNL1        0.0045
     19 C         143.5822  138.9492  160.1469 C.ar    1  UNL1        0.0345
     20 C         142.8742  139.7827  159.1203 C.ar    1  UNL1        0.1342
     21 N         142.2678  141.0979  159.5105 N.ar    1  UNL1       -0.2290
     22 C         142.3694  141.5798  160.9274 C.ar    1  UNL1        0.1003
     23 N         142.7725  139.3009  157.7034 N.am    1  UNL1       -0.2693
     24 C         143.8735  139.5989  156.7291 C.2     1  UNL1        0.2272
     25 O         145.0759  140.3787  157.1717 O.2     1  UNL1       -0.2747
     26 H         141.9833  138.7891  157.4129 H       1  UNL1        0.1563
     27 C         143.7718  139.1171  155.3122 C.3     1  UNL1        0.0868
     28 C         143.0415  139.9383  154.2913 C.3     1  UNL1        0.0269
     29 C         141.5644  139.7588  154.1017 C.3     1  UNL1        0.0727
     30 N         140.6246  140.0213  155.2411 N.3     1  UNL1       -0.2703
     31 C         139.7551  138.9173  155.7656 C.3     1  UNL1        0.0897
     32 C         140.5544  141.3877  155.8558 C.3     1  UNL1        0.0897
     33 C         138.8658  138.3026  163.7142 C.3     1  UNL1        0.1191
     34 C         138.5826  139.6235  164.3662 C.3     1  UNL1        0.0524
     35 C         139.5443  139.2864  165.4669 C.3     1  UNL1        0.0947
     36 C         139.8275  137.9655  164.8148 C.3     1  UNL1        0.0524
     37 C         138.7964  138.1136  161.1239 C.3     1  UNL1        0.1740
     38 O         138.3860  137.6071  162.4748 O.3     1  UNL1       -0.3534
@<TRIPOS>BOND
     1    37    38    1
     2    33    38    1
     3    33    34    1
     4    34    35    1
     5    35     1    1
     6     1     2   ar
     7     2     3    2
     8     2     4   ar
     9     4     5    1
    10     4     6   ar
    11     6     7   ar
    12     7     8   ar
    13     8     9   ar
    14     9    10   ar
    15    10    11   ar
    16    11    12    1
    17    11    13   ar
    18    13    17    1
    19    17    18   ar
    20    18    19   ar
    21    19    20   ar
    22    20    23    1
    23    23    24   am
    24    24    25    2
    25    24    27    1
    26    27    28    1
    27    28    29    1
    28    29    30    1
    29    30    31    1
    30    30    32    1
    31    20    21   ar
    32    21    22   ar
    33    13    14   ar
    34    14    15   ar
    35    15    16   ar
    36    35    36    1
    37    36    33    1
    38    16     1   ar
    39    16     6   ar
    40    15     9   ar
    41    22    17   ar
    42    23    26    1
@<TRIPOS>MOLECULE
*****
 38 42 0 0 0
SMALL
GASTEIGER

@<TRIPOS>ATOM
      1 N         141.3469  140.9368  166.6188 N.ar    1  UNL1       -0.2815
      2 C         141.0934  141.2294  168.0680 C.ar    1  UNL1        0.3316
      3 O         141.9432  142.0895  168.9557 O.2     1  UNL1       -0.2463
      4 N         139.8408  140.5107  168.4736 N.ar    1  UNL1       -0.2765
      5 C         139.2180  140.5261  169.8382 C.3     1  UNL1        0.1352
      6 C         139.3202  139.7741  167.2752 C.ar    1  UNL1        0.0989
      7 C         138.1188  138.8975  167.0796 C.ar    1  UNL1        0.1175
      8 N         137.8483  138.2843  165.7377 N.ar    1  UNL1       -0.2422
      9 C         138.7792  138.5476  164.5914 C.ar    1  UNL1        0.0850
     10 C         138.5086  137.9344  163.2494 C.ar    1  UNL1        0.0488
     11 C         139.4395  138.1977  162.1031 C.ar    1  UNL1        0.1416
     12 F         139.1690  137.5845  160.7612 F       1  UNL1       -0.2041
     13 C         140.6409  139.0743  162.2987 C.ar    1  UNL1        0.0291
     14 C         140.9114  139.6875  163.6406 C.ar    1  UNL1        0.0053
     15 C         139.9806  139.4242  164.7869 C.ar    1  UNL1        0.0352
     16 C         140.2511  140.0374  166.1288 C.ar    1  UNL1        0.0826
     17 C         141.5718  139.3376  161.1523 C.ar    1  UNL1        0.0214
     18 C         141.1060  140.1473  159.9787 C.ar    1  UNL1        0.0045
     19 C         142.0368  140.4106  158.8323 C.ar    1  UNL1        0.0345
     20 C         143.4336  139.8643  158.8596 C.ar    1  UNL1        0.1342
     21 N         143.8994  139.0546  160.0333 N.ar    1  UNL1       -0.2290
     22 C         142.9685  138.7913  161.1796 C.ar    1  UNL1        0.1003
     23 N         144.3645  140.1276  157.7133 N.am    1  UNL1       -0.2693
     24 C         145.0420  141.4601  157.5882 C.2     1  UNL1        0.2272
     25 O         144.7886  142.5291  158.6094 O.2     1  UNL1       -0.2747
     26 H         144.5308  139.4259  157.0430 H       1  UNL1        0.1563
     27 C         145.9729  141.7234  156.4418 C.3     1  UNL1        0.0868
     28 C         146.1454  140.6944  155.3642 C.3     1  UNL1        0.0269
     29 C         145.1691  140.6279  154.2274 C.3     1  UNL1        0.0727
     30 N         143.7648  140.1605  154.4712 N.3     1  UNL1       -0.2703
     31 C         143.4548  138.6930  154.4862 C.3     1  UNL1        0.0897
     32 C         142.6705  141.1606  154.6999 C.3     1  UNL1        0.0897
     33 C         144.1183  142.1830  164.6489 C.3     1  UNL1        0.1191
     34 C         142.8639  142.7817  165.2127 C.3     1  UNL1        0.0524
     35 C         142.4949  141.4530  165.8029 C.3     1  UNL1        0.0947
     36 C         143.7494  140.8543  165.2391 C.3     1  UNL1        0.0524
     37 C         145.5046  142.1652  162.4517 C.3     1  UNL1        0.1740
     38 O         145.2663  142.6992  163.8330 O.3     1  UNL1       -0.3534
@<TRIPOS>BOND
     1    37    38    1
     2    33    38    1
     3    33    34    1
     4    34    35    1
     5    35     1    1
     6     1     2   ar
     7     2     3    2
     8     2     4   ar
     9     4     5    1
    10     4     6   ar
    11     6     7   ar
    12     7     8   ar
    13     8     9   ar
    14     9    10   ar
    15    10    11   ar
    16    11    12    1
    17    11    13   ar
    18    13    17    1
    19    17    18   ar
    20    18    19   ar
    21    19    20   ar
    22    20    23    1
    23    23    24   am
    24    24    25    2
    25    24    27    1
    26    27    28    1
    27    28    29    1
    28    29    30    1
    29    30    31    1
    30    30    32    1
    31    20    21   ar
    32    21    22   ar
    33    13    14   ar
    34    14    15   ar
    35    15    16   ar
    36    35    36    1
    37    36    33    1
    38    16     1   ar
    39    16     6   ar
    40    15     9   ar
    41    22    17   ar
    42    23    26    1
@<TRIPOS>MOLECULE
*****
 38 42 0 0 0
SMALL
GASTEIGER

@<TRIPOS>ATOM
      1 N         139.9588  140.2919  166.7715 N.ar    1  UNL1       -0.2815
      2 C         139.4771  139.9445  168.1489 C.ar    1  UNL1        0.3316
      3 O         138.2580  139.1352  168.4786 O.2     1  UNL1       -0.2463
      4 N         140.4286  140.5486  169.1387 N.ar    1  UNL1       -0.2765
      5 C         140.3281  140.4494  170.6320 C.3     1  UNL1        0.1352
      6 C         141.4983  141.2694  168.3730 C.ar    1  UNL1        0.0989
      7 C         142.6993  142.0496  168.8190 C.ar    1  UNL1        0.1175
      8 N         143.6098  142.6712  167.8019 N.ar    1  UNL1       -0.2422
      9 C         143.3194  142.5126  166.3389 C.ar    1  UNL1        0.0850
     10 C         144.2300  143.1342  165.3218 C.ar    1  UNL1        0.0488
     11 C         143.9397  142.9756  163.8588 C.ar    1  UNL1        0.1416
     12 F         144.8502  143.5972  162.8417 F       1  UNL1       -0.2041
     13 C         142.7387  142.1953  163.4128 C.ar    1  UNL1        0.0291
     14 C         141.8281  141.5737  164.4299 C.ar    1  UNL1        0.0053
     15 C         142.1185  141.7323  165.8929 C.ar    1  UNL1        0.0352
     16 C         141.2080  141.1107  166.9100 C.ar    1  UNL1        0.0826
     17 C         142.4483  142.0366  161.9497 C.ar    1  UNL1        0.0214
     18 C         141.1660  142.5649  161.3780 C.ar    1  UNL1        0.0045
     19 C         140.8756  142.4062  159.9150 C.ar    1  UNL1        0.0345
     20 C         141.8675  141.7194  159.0236 C.ar    1  UNL1        0.1342
     21 N         143.1497  141.1912  159.5954 N.ar    1  UNL1       -0.2290
     22 C         143.4401  141.3498  161.0584 C.ar    1  UNL1        0.1003
     23 N         141.5771  141.5607  157.5606 N.am    1  UNL1       -0.2693
     24 C         141.0726  140.2499  157.0339 C.2     1  UNL1        0.2272
     25 O         140.8584  139.0979  157.9703 O.2     1  UNL1       -0.2747
     26 H         141.7177  142.3169  156.9460 H       1  UNL1        0.1563
     27 C         140.7822  140.0913  155.5709 C.3     1  UNL1        0.0868
     28 C         139.4393  140.4787  155.0265 C.3     1  UNL1        0.0269
     29 C         138.2066  139.7604  155.4894 C.3     1  UNL1        0.0727
     30 N         137.2320  140.4514  156.3966 N.3     1  UNL1       -0.2703
     31 C         137.6533  140.8623  157.7763 C.3     1  UNL1        0.0897
     32 C         135.8362  140.7313  155.9240 C.3     1  UNL1        0.0897
     33 C         138.3825  139.3240  163.6582 C.3     1  UNL1        0.1191
     34 C         139.4348  138.7268  164.5449 C.3     1  UNL1        0.0524
     35 C         139.3059  139.8910  165.4819 C.3     1  UNL1        0.0947
     36 C         138.2536  140.4882  164.5952 C.3     1  UNL1        0.0524
     37 C         138.3842  139.2572  161.0609 C.3     1  UNL1        0.1740
     38 O         137.7297  138.9230  162.3686 O.3     1  UNL1       -0.3534
@<TRIPOS>BOND
     1    37    38    1
     2    33    38    1
     3    33    34    1
     4    34    35    1
     5    35     1    1
     6     1     2   ar
     7     2     3    2
     8     2     4   ar
     9     4     5    1
    10     4     6   ar
    11     6     7   ar
    12     7     8   ar
    13     8     9   ar
    14     9    10   ar
    15    10    11   ar
    16    11    12    1
    17    11    13   ar
    18    13    17    1
    19    17    18   ar
    20    18    19   ar
    21    19    20   ar
    22    20    23    1
    23    23    24   am
    24    24    25    2
    25    24    27    1
    26    27    28    1
    27    28    29    1
    28    29    30    1
    29    30    31    1
    30    30    32    1
    31    20    21   ar
    32    21    22   ar
    33    13    14   ar
    34    14    15   ar
    35    15    16   ar
    36    35    36    1
    37    36    33    1
    38    16     1   ar
    39    16     6   ar
    40    15     9   ar
    41    22    17   ar
    42    23    26    1
@<TRIPOS>MOLECULE
*****
 38 42 0 0 0
SMALL
GASTEIGER

@<TRIPOS>ATOM
      1 N         141.5659  143.9592  158.8815 N.ar    1  UNL1       -0.2815
      2 C         142.0615  144.8592  157.7887 C.ar    1  UNL1        0.3316
      3 O         142.5523  146.2663  157.9599 O.2     1  UNL1       -0.2463
      4 N         141.9800  144.1052  156.4946 N.ar    1  UNL1       -0.2765
      5 C         142.3752  144.6257  155.1444 C.3     1  UNL1        0.1352
      6 C         141.4341  142.7391  156.7876 C.ar    1  UNL1        0.0989
      7 C         141.1370  141.5657  155.9017 C.ar    1  UNL1        0.1175
      8 N         140.5839  140.3021  156.4910 N.ar    1  UNL1       -0.2422
      9 C         140.3280  140.2119  157.9663 C.ar    1  UNL1        0.0850
     10 C         139.7749  138.9482  158.5556 C.ar    1  UNL1        0.0488
     11 C         139.5189  138.8580  160.0309 C.ar    1  UNL1        0.1416
     12 F         138.9658  137.5944  160.6202 F       1  UNL1       -0.2041
     13 C         139.8160  140.0315  160.9168 C.ar    1  UNL1        0.0291
     14 C         140.3691  141.2951  160.3274 C.ar    1  UNL1        0.0053
     15 C         140.6251  141.3853  158.8522 C.ar    1  UNL1        0.0352
     16 C         141.1781  142.6489  158.2628 C.ar    1  UNL1        0.0826
     17 C         139.5600  139.9413  162.3920 C.ar    1  UNL1        0.0214
     18 C         138.4717  140.7637  163.0160 C.ar    1  UNL1        0.0045
     19 C         138.2157  140.6735  164.4913 C.ar    1  UNL1        0.0345
     20 C         139.0481  139.7608  165.3425 C.ar    1  UNL1        0.1342
     21 N         140.1363  138.9385  164.7184 N.ar    1  UNL1       -0.2290
     22 C         140.3923  139.0287  163.2432 C.ar    1  UNL1        0.1003
     23 N         138.7921  139.6706  166.8177 N.am    1  UNL1       -0.2693
     24 C         139.7203  140.3469  167.7827 C.2     1  UNL1        0.2272
     25 O         140.9044  141.1134  167.2725 O.2     1  UNL1       -0.2747
     26 H         138.0149  139.1675  167.1526 H       1  UNL1        0.1563
     27 C         139.4643  140.2567  169.2580 C.3     1  UNL1        0.0868
     28 C         139.5991  141.4778  170.1186 C.3     1  UNL1        0.0269
     29 C         140.7385  141.5902  171.0877 C.3     1  UNL1        0.0727
     30 N         142.1501  141.6433  170.5828 N.3     1  UNL1       -0.2703
     31 C         142.9053  140.3717  170.3326 C.3     1  UNL1        0.0897
     32 C         142.8062  142.9679  170.3282 C.3     1  UNL1        0.0897
     33 C         141.3442  144.8018  162.3965 C.3     1  UNL1        0.1191
     34 C         142.3226  144.0467  161.5464 C.3     1  UNL1        0.0524
     35 C         141.4741  144.3082  160.3375 C.3     1  UNL1        0.0947
     36 C         140.4956  145.0633  161.1876 C.3     1  UNL1        0.0524
     37 C         140.3365  144.3761  164.7531 C.3     1  UNL1        0.1740
     38 O         141.2524  145.1507  163.8525 O.3     1  UNL1       -0.3534
@<TRIPOS>BOND
     1    37    38    1
     2    33    38    1
     3    33    34    1
     4    34    35    1
     5    35     1    1
     6     1     2   ar
     7     2     3    2
     8     2     4   ar
     9     4     5    1
    10     4     6   ar
    11     6     7   ar
    12     7     8   ar
    13     8     9   ar
    14     9    10   ar
    15    10    11   ar
    16    11    12    1
    17    11    13   ar
    18    13    17    1
    19    17    18   ar
    20    18    19   ar
    21    19    20   ar
    22    20    23    1
    23    23    24   am
    24    24    25    2
    25    24    27    1
    26    27    28    1
    27    28    29    1
    28    29    30    1
    29    30    31    1
    30    30    32    1
    31    20    21   ar
    32    21    22   ar
    33    13    14   ar
    34    14    15   ar
    35    15    16   ar
    36    35    36    1
    37    36    33    1
    38    16     1   ar
    39    16     6   ar
    40    15     9   ar
    41    22    17   ar
    42    23    26    1
