@<TRIPOS>MOLECULE
*****
 35 39 0 0 0
SMALL
GASTEIGER

@<TRIPOS>ATOM
      1 C         143.9921  137.6542  166.7686 C.3     1  UNL1        0.0323
      2 C         143.1641  138.8998  166.6550 C.ar    1  UNL1       -0.0060
      3 C         142.5348  139.6471  167.7932 C.ar    1  UNL1        0.0438
      4 C         141.8018  140.8259  167.2248 C.ar    1  UNL1        0.0435
      5 N         141.9779  140.8071  165.7353 N.ar    1  UNL1       -0.3137
      6 C         142.8199  139.6167  165.3831 C.ar    1  UNL1        0.0372
      7 C         143.5048  138.7693  164.3522 C.3     1  UNL1        0.0452
      8 C         143.8493  138.4919  162.9190 C.3     1  UNL1        0.0235
      9 C         143.7610  138.8589  161.4672 C.3     1  UNL1        0.0725
     10 N         143.2635  139.7720  160.3861 N.3     1  UNL1       -0.2724
     11 C         143.8301  139.1329  159.1530 C.3     1  UNL1        0.0721
     12 C         143.4069  139.9524  157.9700 C.3     1  UNL1        0.0188
     13 C         142.5788  141.0979  158.4720 C.3     1  UNL1        0.0191
     14 C         142.4902  140.9864  159.9652 C.3     1  UNL1        0.0771
     15 C         141.6482  142.1768  160.3174 C.3     1  UNL1        0.1032
     16 N         140.9632  143.0242  161.3483 N.pl3   1  UNL1       -0.3314
     17 C         140.6187  143.3016  162.7816 C.ar    1  UNL1        0.0505
     18 C         140.7071  142.9346  164.2334 C.ar    1  UNL1        0.0319
     19 C         141.2046  142.0215  165.3145 C.ar    1  UNL1        0.0646
     20 C         140.3536  143.2088  165.7684 C.ar    1  UNL1        0.0177
     21 C         139.6958  144.3101  164.9910 C.ar    1  UNL1        0.0072
     22 C         139.8283  144.3565  163.4975 C.ar    1  UNL1        0.0663
     23 C         141.0685  141.7641  168.1370 C.3     1  UNL1        0.0446
     24 C         141.0684  141.5235  169.6176 C.3     1  UNL1        0.0128
     25 C         140.7787  141.7155  171.0768 C.3     1  UNL1        0.0008
     26 C         140.2347  142.7690  169.5560 C.3     1  UNL1        0.0008
     27 C         141.8015  140.3447  170.1860 C.3     1  UNL1        0.0695
     28 C         142.5347  139.4065  169.2738 C.2     1  UNL1        0.1739
     29 O         143.2677  138.2278  169.8421 O.2     1  UNL1       -0.2913
     30 H         140.5315  143.7470  160.8380 H       1  UNL1        0.1469
     31 C         139.1705  145.4577  162.7201 C.2     1  UNL1        0.2439
     32 N         139.9777  146.6337  162.2558 N.am    1  UNL1       -0.3253
     33 O         137.7054  145.3830  162.4069 O.2     1  UNL1       -0.2703
     34 H         140.9393  146.6827  162.4613 H       1  UNL1        0.1453
     35 H         139.5459  147.3565  161.7455 H       1  UNL1        0.1453
@<TRIPOS>BOND
     1     1     2    1
     2     2     3   ar
     3     3     4   ar
     4     4     5   ar
     5     5     6   ar
     6     6     7    1
     7     7     8    1
     8     8     9    1
     9     9    10    1
    10    10    11    1
    11    11    12    1
    12    12    13    1
    13    14    13    1
    14    14    15    1
    15    15    16    1
    16    16    17    1
    17    17    18   ar
    18    18    19   ar
    19    19    20   ar
    20    20    21   ar
    21    21    22   ar
    22    22    31    1
    23    31    32   am
    24    31    33    2
    25     4    23    1
    26    23    24    1
    27    24    25    1
    28    24    26    1
    29    24    27    1
    30    27    28    1
    31    28    29    2
    32     6     2   ar
    33    14    10    1
    34    22    17   ar
    35    28     3    1
    36    19     5    1
    37    16    30    1
    38    32    34    1
    39    32    35    1
@<TRIPOS>MOLECULE
*****
 35 39 0 0 0
SMALL
GASTEIGER

@<TRIPOS>ATOM
      1 C         137.5203  138.0790  166.9659 C.3     1  UNL1        0.0323
      2 C         138.5671  139.1393  166.7929 C.ar    1  UNL1       -0.0060
      3 C         139.1114  140.0256  167.8737 C.ar    1  UNL1        0.0438
      4 C         140.1341  140.9335  167.2575 C.ar    1  UNL1        0.0435
      5 N         140.2219  140.6083  165.7958 N.ar    1  UNL1       -0.3137
      6 C         139.2534  139.4994  165.5086 C.ar    1  UNL1        0.0372
      7 C         138.6182  138.5484  164.5381 C.3     1  UNL1        0.0452
      8 C         138.4863  138.0098  163.1444 C.3     1  UNL1        0.0235
      9 C         138.8933  138.0282  161.7007 C.3     1  UNL1        0.0725
     10 N         139.7300  138.5986  160.5941 N.3     1  UNL1       -0.2724
     11 C         139.2826  137.7868  159.4147 C.3     1  UNL1        0.0721
     12 C         140.0483  138.2547  158.2128 C.3     1  UNL1        0.0188
     13 C         140.9689  139.3556  158.6492 C.3     1  UNL1        0.0191
     14 C         140.7722  139.5681  160.1210 C.3     1  UNL1        0.0771
     15 C         141.7407  140.6770  160.4082 C.3     1  UNL1        0.1032
     16 N         142.3759  141.6281  161.3787 N.pl3   1  UNL1       -0.3314
     17 C         142.5078  142.1666  162.7724 C.ar    1  UNL1        0.0505
     18 C         142.1008  142.1482  164.2161 C.ar    1  UNL1        0.0319
     19 C         141.2641  141.5778  165.3227 C.ar    1  UNL1        0.0646
     20 C         142.2229  142.7051  165.7099 C.ar    1  UNL1        0.0177
     21 C         143.1955  143.5022  164.8922 C.ar    1  UNL1        0.0072
     22 C         143.3379  143.2329  163.4234 C.ar    1  UNL1        0.0663
     23 C         140.8533  141.9390  168.1070 C.3     1  UNL1        0.0446
     24 C         140.5498  142.0366  169.5728 C.3     1  UNL1        0.0128
     25 C         140.6086  142.5062  170.9961 C.3     1  UNL1        0.0008
     26 C         141.5930  143.1076  169.4508 C.3     1  UNL1        0.0008
     27 C         139.5271  141.1287  170.1890 C.3     1  UNL1        0.0695
     28 C         138.8079  140.1232  169.3395 C.2     1  UNL1        0.1739
     29 O         137.7852  139.2153  169.9557 O.2     1  UNL1       -0.2913
     30 H         143.0143  142.1512  160.8419 H       1  UNL1        0.1469
     31 C         144.3105  144.0300  162.6057 C.2     1  UNL1        0.2439
     32 N         145.1980  143.3399  161.6127 N.am    1  UNL1       -0.3253
     33 O         144.3956  145.5174  162.7810 O.2     1  UNL1       -0.2703
     34 H         145.1421  142.3637  161.4976 H       1  UNL1        0.1453
     35 H         145.8363  143.8631  161.0760 H       1  UNL1        0.1453
@<TRIPOS>BOND
     1     1     2    1
     2     2     3   ar
     3     3     4   ar
     4     4     5   ar
     5     5     6   ar
     6     6     7    1
     7     7     8    1
     8     8     9    1
     9     9    10    1
    10    10    11    1
    11    11    12    1
    12    12    13    1
    13    14    13    1
    14    14    15    1
    15    15    16    1
    16    16    17    1
    17    17    18   ar
    18    18    19   ar
    19    19    20   ar
    20    20    21   ar
    21    21    22   ar
    22    22    31    1
    23    31    32   am
    24    31    33    2
    25     4    23    1
    26    23    24    1
    27    24    25    1
    28    24    26    1
    29    24    27    1
    30    27    28    1
    31    28    29    2
    32     6     2   ar
    33    14    10    1
    34    22    17   ar
    35    28     3    1
    36    19     5    1
    37    16    30    1
    38    32    34    1
    39    32    35    1
@<TRIPOS>MOLECULE
*****
 35 39 0 0 0
SMALL
GASTEIGER

@<TRIPOS>ATOM
      1 C         144.9753  143.4613  166.1508 C.3     1  UNL1        0.0323
      2 C         143.7191  142.6745  165.9208 C.ar    1  UNL1       -0.0060
      3 C         142.8007  142.1491  166.9840 C.ar    1  UNL1        0.0438
      4 C         141.6748  141.4249  166.3075 C.ar    1  UNL1        0.0435
      5 N         141.8972  141.5027  164.8262 N.ar    1  UNL1       -0.3137
      6 C         143.1607  142.2750  164.5871 C.ar    1  UNL1        0.0372
      7 C         144.1665  142.8593  163.6401 C.3     1  UNL1        0.0452
      8 C         144.6454  143.0991  162.2390 C.3     1  UNL1        0.0235
      9 C         144.4687  142.9300  160.7590 C.3     1  UNL1        0.0725
     10 N         143.6840  142.3974  159.5969 N.3     1  UNL1       -0.2724
     11 C         144.5048  142.8582  158.4290 C.3     1  UNL1        0.0721
     12 C         143.8295  142.3896  157.1742 C.3     1  UNL1        0.0188
     13 C         142.5914  141.6392  157.5666 C.3     1  UNL1        0.0191
     14 C         142.5014  141.6440  159.0639 C.3     1  UNL1        0.0771
     15 C         141.2380  140.8717  159.3030 C.3     1  UNL1        0.1032
     16 N         140.2321  140.2874  160.2500 N.pl3   1  UNL1       -0.3314
     17 C         139.7533  140.0476  161.6511 C.ar    1  UNL1        0.0505
     18 C         139.9300  140.2167  163.1311 C.ar    1  UNL1        0.0319
     19 C         140.7147  140.7493  164.2932 C.ar    1  UNL1        0.0646
     20 C         139.4405  139.9745  164.6339 C.ar    1  UNL1        0.0177
     21 C         138.4222  139.3088  163.7565 C.ar    1  UNL1        0.0072
     22 C         138.5786  139.3454  162.2650 C.ar    1  UNL1        0.0663
     23 C         140.5924  140.7881  167.1279 C.3     1  UNL1        0.0446
     24 C         140.6360  140.8755  168.6247 C.3     1  UNL1        0.0128
     25 C         140.2409  140.6890  170.0596 C.3     1  UNL1        0.0008
     26 C         139.3727  140.0865  168.4465 C.3     1  UNL1        0.0008
     27 C         141.7620  141.5998  169.3012 C.3     1  UNL1        0.0695
     28 C         142.8443  142.2365  168.4809 C.2     1  UNL1        0.1739
     29 O         143.9703  142.9607  169.1573 O.2     1  UNL1       -0.2913
     30 H         139.5638  139.8505  159.6741 H       1  UNL1        0.1469
     31 C         137.5603  138.6797  161.3876 C.2     1  UNL1        0.2439
     32 N         137.1569  137.2592  161.6513 N.am    1  UNL1       -0.3253
     33 O         136.9453  139.4346  160.2466 O.2     1  UNL1       -0.2703
     34 H         137.5606  136.7638  162.4002 H       1  UNL1        0.1453
     35 H         136.4886  136.8223  161.0754 H       1  UNL1        0.1453
@<TRIPOS>BOND
     1     1     2    1
     2     2     3   ar
     3     3     4   ar
     4     4     5   ar
     5     5     6   ar
     6     6     7    1
     7     7     8    1
     8     8     9    1
     9     9    10    1
    10    10    11    1
    11    11    12    1
    12    12    13    1
    13    14    13    1
    14    14    15    1
    15    15    16    1
    16    16    17    1
    17    17    18   ar
    18    18    19   ar
    19    19    20   ar
    20    20    21   ar
    21    21    22   ar
    22    22    31    1
    23    31    32   am
    24    31    33    2
    25     4    23    1
    26    23    24    1
    27    24    25    1
    28    24    26    1
    29    24    27    1
    30    27    28    1
    31    28    29    2
    32     6     2   ar
    33    14    10    1
    34    22    17   ar
    35    28     3    1
    36    19     5    1
    37    16    30    1
    38    32    34    1
    39    32    35    1
@<TRIPOS>MOLECULE
*****
 35 39 0 0 0
SMALL
GASTEIGER

@<TRIPOS>ATOM
      1 C         144.8064  141.6226  161.5176 C.3     1  UNL1        0.0323
      2 C         143.7628  142.5406  160.9534 C.ar    1  UNL1       -0.0060
      3 C         142.6393  143.1744  161.7189 C.ar    1  UNL1        0.0438
      4 C         141.8417  144.0115  160.7633 C.ar    1  UNL1        0.0435
      5 N         142.4723  143.8951  159.4073 N.ar    1  UNL1       -0.3137
      6 C         143.6596  142.9860  159.5247 C.ar    1  UNL1        0.0372
      7 C         144.8265  142.2852  158.8945 C.3     1  UNL1        0.0452
      8 C         145.6603  141.9804  157.6855 C.3     1  UNL1        0.0235
      9 C         145.9376  142.1533  156.2214 C.3     1  UNL1        0.0725
     10 N         145.5840  142.7576  154.8949 N.3     1  UNL1       -0.2724
     11 C         146.6519  142.1978  154.0026 C.3     1  UNL1        0.0721
     12 C         146.4222  142.7255  152.6174 C.3     1  UNL1        0.0188
     13 C         145.2124  143.6115  152.6536 C.3     1  UNL1        0.0191
     14 C         144.6943  143.6314  154.0612 C.3     1  UNL1        0.0771
     15 C         143.5070  144.5405  153.9437 C.3     1  UNL1        0.1032
     16 N         142.3401  145.2413  154.5740 N.pl3   1  UNL1       -0.3314
     17 C         141.5063  145.5461  155.7830 C.ar    1  UNL1        0.0505
     18 C         141.2291  145.3731  157.2470 C.ar    1  UNL1        0.0319
     19 C         141.5826  144.7688  158.5736 C.ar    1  UNL1        0.0646
     20 C         140.3561  145.6826  158.5504 C.ar    1  UNL1        0.0177
     21 C         139.7126  146.4477  157.4322 C.ar    1  UNL1        0.0072
     22 C         140.2877  146.3794  156.0484 C.ar    1  UNL1        0.0663
     23 C         140.6443  144.7717  161.2515 C.3     1  UNL1        0.0446
     24 C         140.2444  144.6947  162.6952 C.3     1  UNL1        0.0128
     25 C         139.4747  144.9378  163.9595 C.3     1  UNL1        0.0008
     26 C         139.1795  145.6162  162.1787 C.3     1  UNL1        0.0008
     27 C         141.0420  143.8576  163.6507 C.3     1  UNL1        0.0695
     28 C         142.2395  143.0975  163.1626 C.2     1  UNL1        0.1739
     29 O         143.0371  142.2604  164.1181 O.2     1  UNL1       -0.2913
     30 H         141.9178  145.7434  153.8400 H       1  UNL1        0.1469
     31 C         139.6441  147.1445  154.9302 C.2     1  UNL1        0.2439
     32 N         138.1510  147.2757  154.8732 N.am    1  UNL1       -0.3253
     33 O         140.4938  147.7784  153.8689 O.2     1  UNL1       -0.2703
     34 H         137.5933  146.8596  155.5698 H       1  UNL1        0.1453
     35 H         137.7286  147.7779  154.1393 H       1  UNL1        0.1453
@<TRIPOS>BOND
     1     1     2    1
     2     2     3   ar
     3     3     4   ar
     4     4     5   ar
     5     5     6   ar
     6     6     7    1
     7     7     8    1
     8     8     9    1
     9     9    10    1
    10    10    11    1
    11    11    12    1
    12    12    13    1
    13    14    13    1
    14    14    15    1
    15    15    16    1
    16    16    17    1
    17    17    18   ar
    18    18    19   ar
    19    19    20   ar
    20    20    21   ar
    21    21    22   ar
    22    22    31    1
    23    31    32   am
    24    31    33    2
    25     4    23    1
    26    23    24    1
    27    24    25    1
    28    24    26    1
    29    24    27    1
    30    27    28    1
    31    28    29    2
    32     6     2   ar
    33    14    10    1
    34    22    17   ar
    35    28     3    1
    36    19     5    1
    37    16    30    1
    38    32    34    1
    39    32    35    1
@<TRIPOS>MOLECULE
*****
 35 39 0 0 0
SMALL
GASTEIGER

@<TRIPOS>ATOM
      1 C         141.9128  144.5356  163.4978 C.3     1  UNL1        0.0323
      2 C         141.6262  143.2343  162.8089 C.ar    1  UNL1       -0.0060
      3 C         141.7556  141.8685  163.4153 C.ar    1  UNL1        0.0438
      4 C         141.3692  140.8605  162.3740 C.ar    1  UNL1        0.0435
      5 N         141.0010  141.6033  161.1239 N.ar    1  UNL1       -0.3137
      6 C         141.1598  143.0704  161.3927 C.ar    1  UNL1        0.0372
      7 C         141.0779  144.4932  160.9246 C.3     1  UNL1        0.0452
      8 C         140.7773  145.4903  159.8452 C.3     1  UNL1        0.0235
      9 C         140.3385  145.7947  158.4434 C.3     1  UNL1        0.0725
     10 N         139.8791  145.3247  157.0951 N.3     1  UNL1       -0.2724
     11 C         139.7035  146.6186  156.3569 C.3     1  UNL1        0.0721
     12 C         139.2381  146.2999  154.9671 C.3     1  UNL1        0.0188
     13 C         139.1260  144.8089  154.8462 C.3     1  UNL1        0.0191
     14 C         139.5222  144.2062  156.1614 C.3     1  UNL1        0.0771
     15 C         139.3634  142.7391  155.8926 C.3     1  UNL1        0.1032
     16 N         139.4452  141.3163  156.3607 N.pl3   1  UNL1       -0.3314
     17 C         139.7458  140.3192  157.4401 C.ar    1  UNL1        0.0505
     18 C         140.1846  140.0148  158.8419 C.ar    1  UNL1        0.0319
     19 C         140.6440  140.4849  160.1902 C.ar    1  UNL1        0.0646
     20 C         140.5113  138.9718  160.0089 C.ar    1  UNL1        0.0177
     21 C         140.0887  138.1495  158.8277 C.ar    1  UNL1        0.0072
     22 C         139.7059  138.8233  157.5433 C.ar    1  UNL1        0.0663
     23 C         141.4026  139.3964  162.6985 C.3     1  UNL1        0.0446
     24 C         141.8224  138.9404  164.0645 C.3     1  UNL1        0.0128
     25 C         142.1472  138.0237  165.2065 C.3     1  UNL1        0.0008
     26 C         141.5488  137.6139  163.4197 C.3     1  UNL1        0.0008
     27 C         142.2088  139.9484  165.1059 C.3     1  UNL1        0.0695
     28 C         142.1754  141.4125  164.7813 C.2     1  UNL1        0.1739
     29 O         142.5618  142.4205  165.8227 O.2     1  UNL1       -0.2913
     30 H         139.1679  140.7767  155.5854 H       1  UNL1        0.1469
     31 C         139.2834  138.0010  156.3621 C.2     1  UNL1        0.2439
     32 N         139.8883  136.6472  156.1356 N.am    1  UNL1       -0.3253
     33 O         138.2558  138.5326  155.4072 O.2     1  UNL1       -0.2703
     34 H         140.5628  136.2984  156.7623 H       1  UNL1        0.1453
     35 H         139.6110  136.1076  155.3603 H       1  UNL1        0.1453
@<TRIPOS>BOND
     1     1     2    1
     2     2     3   ar
     3     3     4   ar
     4     4     5   ar
     5     5     6   ar
     6     6     7    1
     7     7     8    1
     8     8     9    1
     9     9    10    1
    10    10    11    1
    11    11    12    1
    12    12    13    1
    13    14    13    1
    14    14    15    1
    15    15    16    1
    16    16    17    1
    17    17    18   ar
    18    18    19   ar
    19    19    20   ar
    20    20    21   ar
    21    21    22   ar
    22    22    31    1
    23    31    32   am
    24    31    33    2
    25     4    23    1
    26    23    24    1
    27    24    25    1
    28    24    26    1
    29    24    27    1
    30    27    28    1
    31    28    29    2
    32     6     2   ar
    33    14    10    1
    34    22    17   ar
    35    28     3    1
    36    19     5    1
    37    16    30    1
    38    32    34    1
    39    32    35    1
@<TRIPOS>MOLECULE
*****
 35 39 0 0 0
SMALL
GASTEIGER

@<TRIPOS>ATOM
      1 C         141.5700  137.7759  163.9990 C.3     1  UNL1        0.0323
      2 C         141.3728  139.1818  163.5148 C.ar    1  UNL1       -0.0060
      3 C         140.9209  140.3456  164.3463 C.ar    1  UNL1        0.0438
      4 C         140.8617  141.5538  163.4594 C.ar    1  UNL1        0.0435
      5 N         141.2771  141.1368  162.0797 N.ar    1  UNL1       -0.3137
      6 C         141.5930  139.6709  162.1139 C.ar    1  UNL1        0.0372
      7 C         142.0336  138.4202  161.4126 C.3     1  UNL1        0.0452
      8 C         142.4808  137.7200  160.1638 C.3     1  UNL1        0.0235
      9 C         142.8150  137.7579  158.7019 C.3     1  UNL1        0.0725
     10 N         142.9464  138.5237  157.4188 N.3     1  UNL1       -0.2724
     11 C         143.4047  137.4596  156.4661 C.3     1  UNL1        0.0721
     12 C         143.5814  138.0905  155.1167 C.3     1  UNL1        0.0188
     13 C         143.2323  139.5445  155.2355 C.3     1  UNL1        0.0191
     14 C         142.8398  139.8122  156.6583 C.3     1  UNL1        0.0771
     15 C         142.5240  141.2782  156.6241 C.3     1  UNL1        0.1032
     16 N         142.0834  142.5288  157.3254 N.pl3   1  UNL1       -0.3314
     17 C         141.6361  143.2290  158.5742 C.ar    1  UNL1        0.0505
     18 C         141.3020  143.1911  160.0361 C.ar    1  UNL1        0.0319
     19 C         141.1706  142.4253  161.3192 C.ar    1  UNL1        0.0646
     20 C         140.8272  143.9147  161.3805 C.ar    1  UNL1        0.0177
     21 C         140.8400  144.9781  160.3227 C.ar    1  UNL1        0.0072
     22 C         141.2445  144.6352  158.9195 C.ar    1  UNL1        0.0663
     23 C         140.4373  142.8776  164.0228 C.3     1  UNL1        0.0446
     24 C         140.0720  142.9932  165.4730 C.3     1  UNL1        0.0128
     25 C         139.6332  143.6018  166.7719 C.3     1  UNL1        0.0008
     26 C         139.8605  144.4128  165.0371 C.3     1  UNL1        0.0008
     27 C         140.1312  141.7849  166.3599 C.3     1  UNL1        0.0695
     28 C         140.5556  140.4611  165.7966 C.2     1  UNL1        0.1739
     29 O         140.6148  139.2529  166.6835 O.2     1  UNL1       -0.2913
     30 H         142.0918  143.2267  156.6311 H       1  UNL1        0.1469
     31 C         141.2574  145.6986  157.8617 C.2     1  UNL1        0.2439
     32 N         142.5488  146.3565  157.4753 N.am    1  UNL1       -0.3253
     33 O         139.9788  146.1041  157.1903 O.2     1  UNL1       -0.2703
     34 H         143.3880  146.0904  157.9160 H       1  UNL1        0.1453
     35 H         142.5573  147.0545  156.7810 H       1  UNL1        0.1453
@<TRIPOS>BOND
     1     1     2    1
     2     2     3   ar
     3     3     4   ar
     4     4     5   ar
     5     5     6   ar
     6     6     7    1
     7     7     8    1
     8     8     9    1
     9     9    10    1
    10    10    11    1
    11    11    12    1
    12    12    13    1
    13    14    13    1
    14    14    15    1
    15    15    16    1
    16    16    17    1
    17    17    18   ar
    18    18    19   ar
    19    19    20   ar
    20    20    21   ar
    21    21    22   ar
    22    22    31    1
    23    31    32   am
    24    31    33    2
    25     4    23    1
    26    23    24    1
    27    24    25    1
    28    24    26    1
    29    24    27    1
    30    27    28    1
    31    28    29    2
    32     6     2   ar
    33    14    10    1
    34    22    17   ar
    35    28     3    1
    36    19     5    1
    37    16    30    1
    38    32    34    1
    39    32    35    1
@<TRIPOS>MOLECULE
*****
 35 39 0 0 0
SMALL
GASTEIGER

@<TRIPOS>ATOM
      1 C         140.5948  137.6527  158.1976 C.3     1  UNL1        0.0323
      2 C         141.4264  138.7592  158.7757 C.ar    1  UNL1       -0.0060
      3 C         142.4756  139.5462  158.0478 C.ar    1  UNL1        0.0438
      4 C         143.0524  140.5463  159.0054 C.ar    1  UNL1        0.0435
      5 N         142.3597  140.3775  160.3251 N.ar    1  UNL1       -0.3137
      6 C         141.3547  139.2730  160.1832 C.ar    1  UNL1        0.0372
      7 C         140.2835  138.4071  160.7771 C.3     1  UNL1        0.0452
      8 C         139.4330  138.0119  161.9477 C.3     1  UNL1        0.0235
      9 C         139.0311  138.1932  163.3815 C.3     1  UNL1        0.0725
     10 N         139.1855  138.9025  164.6941 N.3     1  UNL1       -0.2724
     11 C         138.1698  138.2031  165.5479 C.3     1  UNL1        0.0721
     12 C         138.2114  138.8180  166.9155 C.3     1  UNL1        0.0188
     13 C         139.2529  139.8975  166.9068 C.3     1  UNL1        0.0191
     14 C         139.8549  139.9498  165.5339 C.3     1  UNL1        0.0771
     15 C         140.8598  141.0543  165.6759 C.3     1  UNL1        0.1032
     16 N         141.9311  141.9201  165.0819 N.pl3   1  UNL1       -0.3314
     17 C         142.7816  142.3154  163.9114 C.ar    1  UNL1        0.0505
     18 C         143.1835  142.1340  162.4776 C.ar    1  UNL1        0.0319
     19 C         143.0290  141.4247  161.1649 C.ar    1  UNL1        0.0646
     20 C         144.0781  142.5368  161.2151 C.ar    1  UNL1        0.0177
     21 C         144.5046  143.4460  162.3292 C.ar    1  UNL1        0.0072
     22 C         143.8563  143.3353  163.6774 C.ar    1  UNL1        0.0663
     23 C         144.1339  141.4815  158.5519 C.3     1  UNL1        0.0446
     24 C         144.6386  141.4166  157.1409 C.3     1  UNL1        0.0128
     25 C         145.4404  141.7378  155.9145 C.3     1  UNL1        0.0008
     26 C         145.4939  142.5284  157.6726 C.3     1  UNL1        0.0008
     27 C         144.0619  140.4165  156.1833 C.3     1  UNL1        0.0695
     28 C         142.9804  139.4812  156.6368 C.2     1  UNL1        0.1739
     29 O         142.4036  138.4811  155.6792 O.2     1  UNL1       -0.2913
     30 H         142.2109  142.5169  165.8133 H       1  UNL1        0.1469
     31 C         144.2827  144.2446  164.7916 C.2     1  UNL1        0.2439
     32 N         144.8690  143.6690  166.0466 N.am    1  UNL1       -0.3253
     33 O         144.1228  145.7294  164.6507 O.2     1  UNL1       -0.2703
     34 H         144.9740  142.6945  166.1390 H       1  UNL1        0.1453
     35 H         145.1489  144.2658  166.7778 H       1  UNL1        0.1453
@<TRIPOS>BOND
     1     1     2    1
     2     2     3   ar
     3     3     4   ar
     4     4     5   ar
     5     5     6   ar
     6     6     7    1
     7     7     8    1
     8     8     9    1
     9     9    10    1
    10    10    11    1
    11    11    12    1
    12    12    13    1
    13    14    13    1
    14    14    15    1
    15    15    16    1
    16    16    17    1
    17    17    18   ar
    18    18    19   ar
    19    19    20   ar
    20    20    21   ar
    21    21    22   ar
    22    22    31    1
    23    31    32   am
    24    31    33    2
    25     4    23    1
    26    23    24    1
    27    24    25    1
    28    24    26    1
    29    24    27    1
    30    27    28    1
    31    28    29    2
    32     6     2   ar
    33    14    10    1
    34    22    17   ar
    35    28     3    1
    36    19     5    1
    37    16    30    1
    38    32    34    1
    39    32    35    1
@<TRIPOS>MOLECULE
*****
 35 39 0 0 0
SMALL
GASTEIGER

@<TRIPOS>ATOM
      1 C         142.8803  136.8544  158.4149 C.3     1  UNL1        0.0323
      2 C         142.6875  138.3418  158.4420 C.ar    1  UNL1       -0.0060
      3 C         143.1532  139.3104  157.3956 C.ar    1  UNL1        0.0438
      4 C         142.7487  140.6889  157.8272 C.ar    1  UNL1        0.0435
      5 N         142.0330  140.5721  159.1403 N.ar    1  UNL1       -0.3137
      6 C         141.9951  139.1216  159.5203 C.ar    1  UNL1        0.0372
      7 C         141.5923  138.0397  160.4780 C.3     1  UNL1        0.0452
      8 C         140.9324  137.6162  161.7566 C.3     1  UNL1        0.0235
      9 C         140.1921  137.9649  163.0139 C.3     1  UNL1        0.0725
     10 N         139.5699  138.9921  163.9127 N.3     1  UNL1       -0.2724
     11 C         139.0465  138.1473  165.0362 C.3     1  UNL1        0.0721
     12 C         138.3857  139.0558  166.0302 C.3     1  UNL1        0.0188
     13 C         138.5007  140.4620  165.5209 C.3     1  UNL1        0.0191
     14 C         139.2326  140.4226  164.2122 C.3     1  UNL1        0.0771
     15 C         139.2704  141.8732  163.8322 C.3     1  UNL1        0.1032
     16 N         139.6733  142.9551  162.8745 N.pl3   1  UNL1       -0.3314
     17 C         140.3332  143.3786  161.5958 C.ar    1  UNL1        0.0505
     18 C         141.0735  143.0299  160.3386 C.ar    1  UNL1        0.0319
     19 C         141.6956  142.0027  159.4398 C.ar    1  UNL1        0.0646
     20 C         141.7828  143.4560  158.9704 C.ar    1  UNL1        0.0177
     21 C         141.2862  144.7282  159.5906 C.ar    1  UNL1        0.0072
     22 C         140.5613  144.6895  160.9034 C.ar    1  UNL1        0.0663
     23 C         143.0843  141.8722  156.9687 C.3     1  UNL1        0.0446
     24 C         143.8244  141.6771  155.6787 C.3     1  UNL1        0.0128
     25 C         144.5063  141.9997  154.3822 C.3     1  UNL1        0.0008
     26 C         143.6567  143.1677  155.6600 C.3     1  UNL1        0.0008
     27 C         144.2289  140.2987  155.2471 C.3     1  UNL1        0.0695
     28 C         143.8933  139.1153  156.1056 C.2     1  UNL1        0.1739
     29 O         144.2978  137.7369  155.6741 O.2     1  UNL1       -0.2913
     30 H         139.3473  143.7901  163.2816 H       1  UNL1        0.1469
     31 C         140.0647  145.9617  161.5236 C.2     1  UNL1        0.2439
     32 N         140.6153  146.4181  162.8422 N.am    1  UNL1       -0.3253
     33 O         139.0174  146.7776  160.8253 O.2     1  UNL1       -0.2703
     34 H         141.3026  145.8826  163.3005 H       1  UNL1        0.1453
     35 H         140.2893  147.2531  163.2493 H       1  UNL1        0.1453
@<TRIPOS>BOND
     1     1     2    1
     2     2     3   ar
     3     3     4   ar
     4     4     5   ar
     5     5     6   ar
     6     6     7    1
     7     7     8    1
     8     8     9    1
     9     9    10    1
    10    10    11    1
    11    11    12    1
    12    12    13    1
    13    14    13    1
    14    14    15    1
    15    15    16    1
    16    16    17    1
    17    17    18   ar
    18    18    19   ar
    19    19    20   ar
    20    20    21   ar
    21    21    22   ar
    22    22    31    1
    23    31    32   am
    24    31    33    2
    25     4    23    1
    26    23    24    1
    27    24    25    1
    28    24    26    1
    29    24    27    1
    30    27    28    1
    31    28    29    2
    32     6     2   ar
    33    14    10    1
    34    22    17   ar
    35    28     3    1
    36    19     5    1
    37    16    30    1
    38    32    34    1
    39    32    35    1
@<TRIPOS>MOLECULE
*****
 35 39 0 0 0
SMALL
GASTEIGER

@<TRIPOS>ATOM
      1 C         144.1644  138.0564  161.6279 C.3     1  UNL1        0.0323
      2 C         143.6588  139.4310  161.3037 C.ar    1  UNL1       -0.0060
      3 C         143.8043  140.6499  162.1657 C.ar    1  UNL1        0.0438
      4 C         143.1544  141.8002  161.4553 C.ar    1  UNL1        0.0435
      5 N         142.6072  141.2920  160.1544 N.ar    1  UNL1       -0.3137
      6 C         142.9189  139.8278  160.0607 C.ar    1  UNL1        0.0372
      7 C         142.8506  138.5305  159.3108 C.3     1  UNL1        0.0452
      8 C         142.4205  137.7477  158.1058 C.3     1  UNL1        0.0235
      9 C         141.7439  137.6892  156.7683 C.3     1  UNL1        0.0725
     10 N         141.0020  138.3707  155.6569 N.3     1  UNL1       -0.2724
     11 C         140.7809  137.2434  154.6923 C.3     1  UNL1        0.0721
     12 C         140.0360  137.7856  153.5087 C.3     1  UNL1        0.0188
     13 C         139.7967  139.2479  153.7416 C.3     1  UNL1        0.0191
     14 C         140.3937  139.6096  155.0693 C.3     1  UNL1        0.0771
     15 C         140.0820  141.0738  155.1630 C.3     1  UNL1        0.1032
     16 N         140.1504  142.3711  155.9129 N.pl3   1  UNL1       -0.3314
     17 C         140.5804  143.1539  157.1179 C.ar    1  UNL1        0.0505
     18 C         141.2571  143.2124  158.4554 C.ar    1  UNL1        0.0319
     19 C         141.9989  142.5309  159.5668 C.ar    1  UNL1        0.0646
     20 C         141.7262  144.0249  159.7502 C.ar    1  UNL1        0.0177
     21 C         141.0273  145.0189  158.8707 C.ar    1  UNL1        0.0072
     22 C         140.4544  144.5834  157.5546 C.ar    1  UNL1        0.0663
     23 C         143.1448  143.1616  162.0849 C.3     1  UNL1        0.0446
     24 C         143.7852  143.3728  163.4249 C.3     1  UNL1        0.0128
     25 C         144.2567  144.0672  164.6680 C.3     1  UNL1        0.0008
     26 C         143.2990  144.7642  163.1462 C.3     1  UNL1        0.0008
     27 C         144.4351  142.2226  164.1352 C.3     1  UNL1        0.0695
     28 C         144.4447  140.8611  163.5056 C.2     1  UNL1        0.1739
     29 O         145.0946  139.7109  164.2159 O.2     1  UNL1       -0.2913
     30 H         139.6916  143.0235  155.3357 H       1  UNL1        0.1469
     31 C         139.7556  145.5775  156.6752 C.2     1  UNL1        0.2439
     32 N         139.9795  147.0466  156.8786 N.am    1  UNL1       -0.3253
     33 O         138.8327  145.1023  155.5922 O.2     1  UNL1       -0.2703
     34 H         140.5852  147.3585  157.5894 H       1  UNL1        0.1453
     35 H         139.5208  147.6991  156.3014 H       1  UNL1        0.1453
@<TRIPOS>BOND
     1     1     2    1
     2     2     3   ar
     3     3     4   ar
     4     4     5   ar
     5     5     6   ar
     6     6     7    1
     7     7     8    1
     8     8     9    1
     9     9    10    1
    10    10    11    1
    11    11    12    1
    12    12    13    1
    13    14    13    1
    14    14    15    1
    15    15    16    1
    16    16    17    1
    17    17    18   ar
    18    18    19   ar
    19    19    20   ar
    20    20    21   ar
    21    21    22   ar
    22    22    31    1
    23    31    32   am
    24    31    33    2
    25     4    23    1
    26    23    24    1
    27    24    25    1
    28    24    26    1
    29    24    27    1
    30    27    28    1
    31    28    29    2
    32     6     2   ar
    33    14    10    1
    34    22    17   ar
    35    28     3    1
    36    19     5    1
    37    16    30    1
    38    32    34    1
    39    32    35    1
