@<TRIPOS>MOLECULE
*****
 21 23 0 0 0
SMALL
GASTEIGER

@<TRIPOS>ATOM
      1 C         137.9206  140.5019  163.1606 C.3     1  UNL1        0.0766
      2 C         138.3482  139.1538  163.6603 C.3     1  UNL1        0.0209
      3 C         139.1853  139.0443  164.9001 C.3     1  UNL1        0.0104
      4 C         139.5948  140.2829  165.6404 C.3     1  UNL1        0.0444
      5 C         139.1672  141.6312  165.1407 C.ar    1  UNL1       -0.0211
      6 C         139.5767  142.8698  165.8810 C.ar    1  UNL1       -0.0042
      7 C         139.1492  144.2179  165.3813 C.ar    1  UNL1       -0.0003
      8 C         138.3121  144.3274  164.1415 C.ar    1  UNL1       -0.0003
      9 C         137.9026  143.0888  163.4012 C.ar    1  UNL1       -0.0033
     10 C         138.3301  141.7407  163.9009 C.ar    1  UNL1       -0.0117
     11 C         140.4319  140.1735  166.8803 C.ar    1  UNL1       -0.0175
     12 C         141.9271  140.1217  166.7735 C.ar    1  UNL1       -0.0030
     13 C         142.7642  140.0122  168.0134 C.ar    1  UNL1        0.0119
     14 C         142.1060  139.9545  169.3600 C.ar    1  UNL1        0.0682
     15 CL        142.9431  139.8450  170.5999 Cl      1  UNL1       -0.0814
     16 C         140.6107  140.0063  169.4668 C.ar    1  UNL1        0.0679
     17 CL        139.9525  139.9485  170.8134 Cl      1  UNL1       -0.0814
     18 C         139.7736  140.1157  168.2269 C.ar    1  UNL1        0.0083
     19 C         137.4859  139.8761  160.6768 C.3     1  UNL1        0.0861
     20 N         137.0835  140.6114  161.9207 N.3     1  UNL1       -0.2940
     21 H         136.1491  140.2847  162.1666 H       1  UNL1        0.1235
@<TRIPOS>BOND
     1    19    20    1
     2     1    20    1
     3     1     2    1
     4     2     3    1
     5     3     4    1
     6     4    11    1
     7    11    12   ar
     8    12    13   ar
     9    13    14   ar
    10    14    15    1
    11    14    16   ar
    12    16    17    1
    13    16    18   ar
    14     4     5    1
    15     5     6   ar
    16     6     7   ar
    17     7     8   ar
    18     8     9   ar
    19     9    10   ar
    20    10     1    1
    21    18    11   ar
    22    10     5   ar
    23    20    21    1
@<TRIPOS>MOLECULE
*****
 21 23 0 0 0
SMALL
GASTEIGER

@<TRIPOS>ATOM
      1 C         140.7226  144.9219  163.4831 C.3     1  UNL1        0.0766
      2 C         139.4025  144.8542  164.1921 C.3     1  UNL1        0.0209
      3 C         139.2449  143.9820  165.4022 C.3     1  UNL1        0.0104
      4 C         140.4074  143.1775  165.9034 C.3     1  UNL1        0.0444
      5 C         141.7276  143.2451  165.1944 C.ar    1  UNL1       -0.0211
      6 C         142.8901  142.4405  165.6956 C.ar    1  UNL1       -0.0042
      7 C         144.2102  142.5082  164.9866 C.ar    1  UNL1       -0.0003
      8 C         144.3678  143.3804  163.7765 C.ar    1  UNL1       -0.0003
      9 C         143.2053  144.1849  163.2754 C.ar    1  UNL1       -0.0033
     10 C         141.8852  144.1173  163.9843 C.ar    1  UNL1       -0.0117
     11 C         140.2498  142.3053  167.1135 C.ar    1  UNL1       -0.0175
     12 C         139.8207  140.8764  166.9575 C.ar    1  UNL1       -0.0030
     13 C         139.6631  140.0042  168.1676 C.ar    1  UNL1        0.0119
     14 C         139.9345  140.5608  169.5338 C.ar    1  UNL1        0.0682
     15 CL        139.7769  139.6886  170.7439 Cl      1  UNL1       -0.0814
     16 C         140.3636  141.9897  169.6899 C.ar    1  UNL1        0.0679
     17 CL        140.6350  142.5463  171.0561 Cl      1  UNL1       -0.0814
     18 C         140.5212  142.8619  168.4798 C.ar    1  UNL1        0.0083
     19 C         139.6675  146.3328  161.5737 C.3     1  UNL1        0.0861
     20 N         140.8802  145.7941  162.2730 N.3     1  UNL1       -0.2940
     21 H         141.4361  146.5994  162.5609 H       1  UNL1        0.1235
@<TRIPOS>BOND
     1    19    20    1
     2     1    20    1
     3     1     2    1
     4     2     3    1
     5     3     4    1
     6     4    11    1
     7    11    12   ar
     8    12    13   ar
     9    13    14   ar
    10    14    15    1
    11    14    16   ar
    12    16    17    1
    13    16    18   ar
    14     4     5    1
    15     5     6   ar
    16     6     7   ar
    17     7     8   ar
    18     8     9   ar
    19     9    10   ar
    20    10     1    1
    21    18    11   ar
    22    10     5   ar
    23    20    21    1
@<TRIPOS>MOLECULE
*****
 21 23 0 0 0
SMALL
GASTEIGER

@<TRIPOS>ATOM
      1 C         143.4094  143.5614  163.6683 C.3     1  UNL1        0.0766
      2 C         144.0351  142.5863  164.6210 C.3     1  UNL1        0.0209
      3 C         143.2270  142.0156  165.7484 C.3     1  UNL1        0.0104
      4 C         141.7931  142.4199  165.9232 C.3     1  UNL1        0.0444
      5 C         141.1673  143.3950  164.9705 C.ar    1  UNL1       -0.0211
      6 C         139.7335  143.7993  165.1453 C.ar    1  UNL1       -0.0042
      7 C         139.1078  144.7743  164.1926 C.ar    1  UNL1       -0.0003
      8 C         139.9159  145.3451  163.0651 C.ar    1  UNL1       -0.0003
      9 C         141.3497  144.9408  162.8903 C.ar    1  UNL1       -0.0033
     10 C         141.9754  143.9658  163.8430 C.ar    1  UNL1       -0.0117
     11 C         140.9850  141.8491  167.0507 C.ar    1  UNL1       -0.0175
     12 C         140.3079  140.5203  166.8904 C.ar    1  UNL1       -0.0030
     13 C         139.4998  139.9495  168.0179 C.ar    1  UNL1        0.0119
     14 C         139.3688  140.7075  169.3056 C.ar    1  UNL1        0.0682
     15 CL        138.5607  140.1368  170.4331 Cl      1  UNL1       -0.0814
     16 C         140.0459  142.0364  169.4659 C.ar    1  UNL1        0.0679
     17 CL        139.9150  142.7944  170.7536 Cl      1  UNL1       -0.0814
     18 C         140.8541  142.6072  168.3384 C.ar    1  UNL1        0.0083
     19 C         144.5432  143.2842  161.3472 C.3     1  UNL1        0.0861
     20 N         144.2175  144.1322  162.5408 N.3     1  UNL1       -0.2940
     21 H         143.7070  144.9445  162.1944 H       1  UNL1        0.1235
@<TRIPOS>BOND
     1    19    20    1
     2     1    20    1
     3     1     2    1
     4     2     3    1
     5     3     4    1
     6     4    11    1
     7    11    12   ar
     8    12    13   ar
     9    13    14   ar
    10    14    15    1
    11    14    16   ar
    12    16    17    1
    13    16    18   ar
    14     4     5    1
    15     5     6   ar
    16     6     7   ar
    17     7     8   ar
    18     8     9   ar
    19     9    10   ar
    20    10     1    1
    21    18    11   ar
    22    10     5   ar
    23    20    21    1
@<TRIPOS>MOLECULE
*****
 21 23 0 0 0
SMALL
GASTEIGER

@<TRIPOS>ATOM
      1 C         142.6205  137.9930  162.4755 C.3     1  UNL1        0.0766
      2 C         143.9133  138.5959  162.9391 C.3     1  UNL1        0.0209
      3 C         143.9726  139.3300  164.2458 C.3     1  UNL1        0.0104
      4 C         142.7391  139.4612  165.0890 C.3     1  UNL1        0.0444
      5 C         141.4461  138.8582  164.6255 C.ar    1  UNL1       -0.0211
      6 C         140.2125  138.9894  165.4687 C.ar    1  UNL1       -0.0042
      7 C         138.9197  138.3865  165.0051 C.ar    1  UNL1       -0.0003
      8 C         138.8604  137.6524  163.6984 C.ar    1  UNL1       -0.0003
      9 C         140.0939  137.5212  162.8552 C.ar    1  UNL1       -0.0033
     10 C         141.3868  138.1241  163.3187 C.ar    1  UNL1       -0.0117
     11 C         142.7984  140.1953  166.3958 C.ar    1  UNL1       -0.0175
     12 C         142.9665  141.6857  166.4118 C.ar    1  UNL1       -0.0030
     13 C         143.0258  142.4198  167.7185 C.ar    1  UNL1        0.0119
     14 C         142.9169  141.6635  169.0092 C.ar    1  UNL1        0.0682
     15 CL        142.9762  142.3976  170.3160 Cl      1  UNL1       -0.0814
     16 C         142.7488  140.1730  168.9933 C.ar    1  UNL1        0.0679
     17 CL        142.6399  139.4167  170.2840 Cl      1  UNL1       -0.0814
     18 C         142.6895  139.4389  167.6866 C.ar    1  UNL1        0.0083
     19 C         142.5639  138.0234  159.8783 C.3     1  UNL1        0.0861
     20 N         142.5612  137.2589  161.1688 N.3     1  UNL1       -0.2940
     21 H         143.3688  136.6363  161.1439 H       1  UNL1        0.1235
@<TRIPOS>BOND
     1    19    20    1
     2     1    20    1
     3     1     2    1
     4     2     3    1
     5     3     4    1
     6     4    11    1
     7    11    12   ar
     8    12    13   ar
     9    13    14   ar
    10    14    15    1
    11    14    16   ar
    12    16    17    1
    13    16    18   ar
    14     4     5    1
    15     5     6   ar
    16     6     7   ar
    17     7     8   ar
    18     8     9   ar
    19     9    10   ar
    20    10     1    1
    21    18    11   ar
    22    10     5   ar
    23    20    21    1
@<TRIPOS>MOLECULE
*****
 21 23 0 0 0
SMALL
GASTEIGER

@<TRIPOS>ATOM
      1 C         142.3252  144.2282  162.5585 C.3     1  UNL1        0.0766
      2 C         143.5706  143.4594  162.8866 C.3     1  UNL1        0.0209
      3 C         143.6514  142.6703  164.1597 C.3     1  UNL1        0.0104
      4 C         142.4868  142.6500  165.1047 C.3     1  UNL1        0.0444
      5 C         141.2412  143.4189  164.7766 C.ar    1  UNL1       -0.0211
      6 C         140.0765  143.3986  165.7216 C.ar    1  UNL1       -0.0042
      7 C         138.8311  144.1674  165.3935 C.ar    1  UNL1       -0.0003
      8 C         138.7503  144.9565  164.1204 C.ar    1  UNL1       -0.0003
      9 C         139.9149  144.9768  163.1754 C.ar    1  UNL1       -0.0033
     10 C         141.1604  144.2080  163.5035 C.ar    1  UNL1       -0.0117
     11 C         142.5676  141.8609  166.3778 C.ar    1  UNL1       -0.0175
     12 C         142.1037  140.4348  166.4070 C.ar    1  UNL1       -0.0030
     13 C         142.1845  139.6457  167.6801 C.ar    1  UNL1        0.0119
     14 C         142.7292  140.2827  168.9240 C.ar    1  UNL1        0.0682
     15 CL        142.8100  139.4936  170.1971 Cl      1  UNL1       -0.0814
     16 C         143.1931  141.7089  168.8949 C.ar    1  UNL1        0.0679
     17 CL        143.7378  142.3460  170.1388 Cl      1  UNL1       -0.0814
     18 C         143.1123  142.4980  167.6218 C.ar    1  UNL1        0.0083
     19 C         141.7568  144.3627  160.0269 C.3     1  UNL1        0.0861
     20 N         142.2444  145.0173  161.2854 N.3     1  UNL1       -0.2940
     21 H         141.6234  145.8059  161.4667 H       1  UNL1        0.1235
@<TRIPOS>BOND
     1    19    20    1
     2     1    20    1
     3     1     2    1
     4     2     3    1
     5     3     4    1
     6     4    11    1
     7    11    12   ar
     8    12    13   ar
     9    13    14   ar
    10    14    15    1
    11    14    16   ar
    12    16    17    1
    13    16    18   ar
    14     4     5    1
    15     5     6   ar
    16     6     7   ar
    17     7     8   ar
    18     8     9   ar
    19     9    10   ar
    20    10     1    1
    21    18    11   ar
    22    10     5   ar
    23    20    21    1
@<TRIPOS>MOLECULE
*****
 21 23 0 0 0
SMALL
GASTEIGER

@<TRIPOS>ATOM
      1 C         143.7507  139.1365  162.5775 C.3     1  UNL1        0.0766
      2 C         142.8672  138.0563  163.1275 C.3     1  UNL1        0.0209
      3 C         142.2275  138.2236  164.4739 C.3     1  UNL1        0.0104
      4 C         142.4712  139.4711  165.2703 C.3     1  UNL1        0.0444
      5 C         143.3548  140.5514  164.7203 C.ar    1  UNL1       -0.0211
      6 C         143.5985  141.7989  165.5167 C.ar    1  UNL1       -0.0042
      7 C         144.4820  142.8791  164.9667 C.ar    1  UNL1       -0.0003
      8 C         145.1218  142.7118  163.6203 C.ar    1  UNL1       -0.0003
      9 C         144.8780  141.4643  162.8239 C.ar    1  UNL1       -0.0033
     10 C         143.9945  140.3841  163.3739 C.ar    1  UNL1       -0.0117
     11 C         141.8315  139.6384  166.6167 C.ar    1  UNL1       -0.0175
     12 C         140.3717  139.9682  166.7177 C.ar    1  UNL1       -0.0030
     13 C         139.7320  140.1355  168.0641 C.ar    1  UNL1        0.0119
     14 C         140.5520  139.9731  169.3095 C.ar    1  UNL1        0.0682
     15 CL        139.9123  140.1404  170.6558 Cl      1  UNL1       -0.0814
     16 C         142.0119  139.6433  169.2085 C.ar    1  UNL1        0.0679
     17 CL        142.8320  139.4809  170.4539 Cl      1  UNL1       -0.0814
     18 C         142.6517  139.4760  167.8621 C.ar    1  UNL1        0.0083
     19 C         143.5765  139.1580  159.9854 C.3     1  UNL1        0.0861
     20 N         144.3904  138.9692  161.2311 N.3     1  UNL1       -0.2940
     21 H         145.1588  139.6384  161.1850 H       1  UNL1        0.1235
@<TRIPOS>BOND
     1    19    20    1
     2     1    20    1
     3     1     2    1
     4     2     3    1
     5     3     4    1
     6     4    11    1
     7    11    12   ar
     8    12    13   ar
     9    13    14   ar
    10    14    15    1
    11    14    16   ar
    12    16    17    1
    13    16    18   ar
    14     4     5    1
    15     5     6   ar
    16     6     7   ar
    17     7     8   ar
    18     8     9   ar
    19     9    10   ar
    20    10     1    1
    21    18    11   ar
    22    10     5   ar
    23    20    21    1
@<TRIPOS>MOLECULE
*****
 21 23 0 0 0
SMALL
GASTEIGER

@<TRIPOS>ATOM
      1 C         138.4503  139.2954  166.9598 C.3     1  UNL1        0.0766
      2 C         138.6017  139.3613  165.4689 C.3     1  UNL1        0.0209
      3 C         139.5317  140.3642  164.8531 C.3     1  UNL1        0.0104
      4 C         140.3104  141.3012  165.7281 C.3     1  UNL1        0.0444
      5 C         140.1591  141.2353  167.2191 C.ar    1  UNL1       -0.0211
      6 C         140.9377  142.1722  168.0941 C.ar    1  UNL1       -0.0042
      7 C         140.7864  142.1063  169.5849 C.ar    1  UNL1       -0.0003
      8 C         139.8564  141.1034  170.2008 C.ar    1  UNL1       -0.0003
      9 C         139.0777  140.1664  169.3257 C.ar    1  UNL1       -0.0033
     10 C         139.2290  140.2324  167.8349 C.ar    1  UNL1       -0.0117
     11 C         141.2404  142.3041  165.1123 C.ar    1  UNL1       -0.0175
     12 C         140.7183  143.6395  164.6718 C.ar    1  UNL1       -0.0030
     13 C         141.6483  144.6424  164.0560 C.ar    1  UNL1        0.0119
     14 C         143.1004  144.3099  163.8806 C.ar    1  UNL1        0.0682
     15 CL        144.0304  145.3128  163.2648 Cl      1  UNL1       -0.0814
     16 C         143.6226  142.9744  164.3211 C.ar    1  UNL1        0.0679
     17 CL        145.0747  142.6419  164.1457 Cl      1  UNL1       -0.0814
     18 C         142.6926  141.9715  164.9369 C.ar    1  UNL1        0.0083
     19 C         137.3284  136.9522  166.9300 C.3     1  UNL1        0.0861
     20 N         137.5203  138.2925  167.5756 N.3     1  UNL1       -0.2940
     21 H         137.8600  138.1178  168.5214 H       1  UNL1        0.1235
@<TRIPOS>BOND
     1    19    20    1
     2     1    20    1
     3     1     2    1
     4     2     3    1
     5     3     4    1
     6     4    11    1
     7    11    12   ar
     8    12    13   ar
     9    13    14   ar
    10    14    15    1
    11    14    16   ar
    12    16    17    1
    13    16    18   ar
    14     4     5    1
    15     5     6   ar
    16     6     7   ar
    17     7     8   ar
    18     8     9   ar
    19     9    10   ar
    20    10     1    1
    21    18    11   ar
    22    10     5   ar
    23    20    21    1
@<TRIPOS>MOLECULE
*****
 21 23 0 0 0
SMALL
GASTEIGER

@<TRIPOS>ATOM
      1 C         139.8245  140.7036  168.4303 C.3     1  UNL1        0.0766
      2 C         140.3343  142.1087  168.5550 C.3     1  UNL1        0.0209
      3 C         140.3956  142.9944  167.3459 C.3     1  UNL1        0.0104
      4 C         139.9472  142.4748  166.0121 C.3     1  UNL1        0.0444
      5 C         139.4374  141.0696  165.8874 C.ar    1  UNL1       -0.0211
      6 C         138.9890  140.5500  164.5537 C.ar    1  UNL1       -0.0042
      7 C         138.4792  139.1449  164.4290 C.ar    1  UNL1       -0.0003
      8 C         138.4179  138.2592  165.6381 C.ar    1  UNL1       -0.0003
      9 C         138.8663  138.7788  166.9718 C.ar    1  UNL1       -0.0033
     10 C         139.3761  140.1839  167.0965 C.ar    1  UNL1       -0.0117
     11 C         140.0086  143.3604  164.8030 C.ar    1  UNL1       -0.0175
     12 C         138.7977  144.1389  164.3814 C.ar    1  UNL1       -0.0030
     13 C         138.8591  145.0246  163.1723 C.ar    1  UNL1        0.0119
     14 C         140.1312  145.1317  162.3848 C.ar    1  UNL1        0.0682
     15 CL        140.1926  146.0173  161.1758 Cl      1  UNL1       -0.0814
     16 C         141.3422  144.3532  162.8065 C.ar    1  UNL1        0.0679
     17 CL        142.6143  144.4604  162.0191 Cl      1  UNL1       -0.0814
     18 C         141.2808  143.4676  164.0156 C.ar    1  UNL1        0.0083
     19 C         140.7033  140.0472  170.7855 C.3     1  UNL1        0.0861
     20 N         139.7632  139.8179  169.6394 N.3     1  UNL1       -0.2940
     21 H         138.8177  139.8961  170.0140 H       1  UNL1        0.1235
@<TRIPOS>BOND
     1    19    20    1
     2     1    20    1
     3     1     2    1
     4     2     3    1
     5     3     4    1
     6     4    11    1
     7    11    12   ar
     8    12    13   ar
     9    13    14   ar
    10    14    15    1
    11    14    16   ar
    12    16    17    1
    13    16    18   ar
    14     4     5    1
    15     5     6   ar
    16     6     7   ar
    17     7     8   ar
    18     8     9   ar
    19     9    10   ar
    20    10     1    1
    21    18    11   ar
    22    10     5   ar
    23    20    21    1
@<TRIPOS>MOLECULE
*****
 21 23 0 0 0
SMALL
GASTEIGER

@<TRIPOS>ATOM
      1 C         144.1691  140.1068  163.1909 C.3     1  UNL1        0.0766
      2 C         143.6549  139.2113  164.2789 C.3     1  UNL1        0.0209
      3 C         142.9950  139.8037  165.4886 C.3     1  UNL1        0.0104
      4 C         142.8492  141.2916  165.6104 C.3     1  UNL1        0.0444
      5 C         143.3635  142.1872  164.5225 C.ar    1  UNL1       -0.0211
      6 C         143.2177  143.6751  164.6443 C.ar    1  UNL1       -0.0042
      7 C         143.7319  144.5706  163.5564 C.ar    1  UNL1       -0.0003
      8 C         144.3919  143.9782  162.3466 C.ar    1  UNL1       -0.0003
      9 C         144.5376  142.4903  162.2248 C.ar    1  UNL1       -0.0033
     10 C         144.0234  141.5948  163.3127 C.ar    1  UNL1       -0.0117
     11 C         142.1893  141.8841  166.8202 C.ar    1  UNL1       -0.0175
     12 C         140.7263  142.2136  166.7907 C.ar    1  UNL1       -0.0030
     13 C         140.0663  142.8060  168.0004 C.ar    1  UNL1        0.0119
     14 C         140.8694  143.0689  169.2397 C.ar    1  UNL1        0.0682
     15 CL        140.2095  143.6613  170.4495 Cl      1  UNL1       -0.0814
     16 C         142.3325  142.7394  169.2693 C.ar    1  UNL1        0.0679
     17 CL        143.1356  143.0022  170.5086 Cl      1  UNL1       -0.0814
     18 C         142.9924  142.1469  168.0595 C.ar    1  UNL1        0.0083
     19 C         144.0078  138.7817  160.9620 C.3     1  UNL1        0.0861
     20 N         144.8291  139.5144  161.9812 N.3     1  UNL1       -0.2940
     21 H         145.2898  140.2816  161.4917 H       1  UNL1        0.1235
@<TRIPOS>BOND
     1    19    20    1
     2     1    20    1
     3     1     2    1
     4     2     3    1
     5     3     4    1
     6     4    11    1
     7    11    12   ar
     8    12    13   ar
     9    13    14   ar
    10    14    15    1
    11    14    16   ar
    12    16    17    1
    13    16    18   ar
    14     4     5    1
    15     5     6   ar
    16     6     7   ar
    17     7     8   ar
    18     8     9   ar
    19     9    10   ar
    20    10     1    1
    21    18    11   ar
    22    10     5   ar
    23    20    21    1
