@<TRIPOS>MOLECULE
*****
 19 20 0 0 0
SMALL
GASTEIGER

@<TRIPOS>ATOM
      1 C         140.5048  140.3823  167.2520 C.ar    1  UNL1        0.0511
      2 C         141.8899  139.9217  166.9067 C.ar    1  UNL1        0.0163
      3 C         142.7602  139.3056  167.9617 C.ar    1  UNL1        0.0253
      4 C         142.2453  139.1500  169.3619 C.ar    1  UNL1        0.1365
      5 C         140.8602  139.6105  169.7072 C.ar    1  UNL1        0.1541
      6 O         140.3452  139.4549  171.1074 O.3     1  UNL1       -0.5039
      7 C         139.9899  140.2267  168.6522 C.ar    1  UNL1        0.0527
      8 H         140.8889  139.0700  171.7665 H       1  UNL1        0.2923
      9 C         139.8079  142.4427  165.8311 C.3     1  UNL1        0.1122
     10 N         139.6345  140.9984  166.1970 N.pl3   1  UNL1       -0.3040
     11 C         138.5908  140.1703  165.5079 C.3     1  UNL1        0.1122
     12 N         143.1156  138.5338  170.4169 N.2     1  UNL1       -0.1435
     13 N         143.7446  137.1927  170.1811 N.2     1  UNL1       -0.1284
     14 C         144.6149  136.5765  171.2360 C.ar    1  UNL1        0.1838
     15 C         144.5043  135.1113  171.5379 C.ar    1  UNL1        0.0406
     16 C         145.3746  134.4951  172.5928 C.ar    1  UNL1        0.0048
     17 C         146.3554  135.3442  173.3460 C.ar    1  UNL1        0.0208
     18 C         146.4660  136.8093  173.0441 C.ar    1  UNL1        0.1006
     19 N         145.5957  137.4254  171.9891 N.ar    1  UNL1       -0.2236
@<TRIPOS>BOND
     1     9    10    1
     2    10    11    1
     3    10     1    1
     4     1     2   ar
     5     2     3   ar
     6     3     4   ar
     7     4    12    1
     8    12    13    2
     9    13    14    1
    10    14    15   ar
    11    15    16   ar
    12    16    17   ar
    13    17    18   ar
    14    18    19   ar
    15     4     5   ar
    16     5     6    1
    17     5     7   ar
    18     7     1   ar
    19    19    14   ar
    20     6     8    1
@<TRIPOS>MOLECULE
*****
 19 20 0 0 0
SMALL
GASTEIGER

@<TRIPOS>ATOM
      1 C         140.3733  141.8797  167.4000 C.ar    1  UNL1        0.0511
      2 C         140.5442  142.3222  168.8230 C.ar    1  UNL1        0.0163
      3 C         139.8994  141.5454  169.9325 C.ar    1  UNL1        0.0253
      4 C         139.0838  140.3262  169.6190 C.ar    1  UNL1        0.1365
      5 C         138.9130  139.8838  168.1960 C.ar    1  UNL1        0.1541
      6 O         138.0974  138.6645  167.8825 O.3     1  UNL1       -0.5039
      7 C         139.5578  140.6605  167.0865 C.ar    1  UNL1        0.0527
      8 H         137.6946  138.1793  168.5755 H       1  UNL1        0.2923
      9 C         142.4973  142.5537  166.0643 C.3     1  UNL1        0.1122
     10 N         141.0181  142.6564  166.2905 N.pl3   1  UNL1       -0.3040
     11 C         140.1836  143.5358  165.4073 C.3     1  UNL1        0.1122
     12 N         138.4391  139.5495  170.7285 N.2     1  UNL1       -0.1435
     13 N         137.0755  138.9555  170.5343 N.2     1  UNL1       -0.1284
     14 C         136.4308  138.1787  171.6438 C.ar    1  UNL1        0.1838
     15 C         137.1490  137.0151  172.2605 C.ar    1  UNL1        0.0406
     16 C         136.5042  136.2384  173.3700 C.ar    1  UNL1        0.0048
     17 C         135.1413  136.6253  173.8628 C.ar    1  UNL1        0.0208
     18 C         134.4231  137.7889  173.2460 C.ar    1  UNL1        0.1006
     19 N         135.0679  138.5656  172.1365 N.ar    1  UNL1       -0.2236
@<TRIPOS>BOND
     1     9    10    1
     2    10    11    1
     3    10     1    1
     4     1     2   ar
     5     2     3   ar
     6     3     4   ar
     7     4    12    1
     8    12    13    2
     9    13    14    1
    10    14    15   ar
    11    15    16   ar
    12    16    17   ar
    13    17    18   ar
    14    18    19   ar
    15     4     5   ar
    16     5     6    1
    17     5     7   ar
    18     7     1   ar
    19    19    14   ar
    20     6     8    1
@<TRIPOS>MOLECULE
*****
 19 20 0 0 0
SMALL
GASTEIGER

@<TRIPOS>ATOM
      1 C         143.7008  142.9439  160.4054 C.ar    1  UNL1        0.0511
      2 C         142.4748  143.2356  161.2189 C.ar    1  UNL1        0.0163
      3 C         142.5112  143.0844  162.7108 C.ar    1  UNL1        0.0253
      4 C         143.7736  142.6415  163.3892 C.ar    1  UNL1        0.1365
      5 C         144.9995  142.3497  162.5757 C.ar    1  UNL1        0.1541
      6 O         146.2620  141.9068  163.2541 O.3     1  UNL1       -0.5039
      7 C         144.9631  142.5009  161.0838 C.ar    1  UNL1        0.0527
      8 H         146.2847  141.8123  164.1860 H       1  UNL1        0.2923
      9 C         144.6410  142.3424  158.0593 C.3     1  UNL1        0.1122
     10 N         143.6644  143.0950  158.9135 N.pl3   1  UNL1       -0.3040
     11 C         142.6514  143.9989  158.2757 C.3     1  UNL1        0.1122
     12 N         143.8100  142.4903  164.8811 N.2     1  UNL1       -0.1435
     13 N         142.9176  141.4911  165.5557 N.2     1  UNL1       -0.1284
     14 C         142.9540  141.3399  167.0476 C.ar    1  UNL1        0.1838
     15 C         142.5463  140.0423  167.6801 C.ar    1  UNL1        0.0406
     16 C         142.5827  139.8911  169.1721 C.ar    1  UNL1        0.0048
     17 C         143.0268  141.0375  170.0315 C.ar    1  UNL1        0.0208
     18 C         143.4345  142.3351  169.3989 C.ar    1  UNL1        0.1006
     19 N         143.3981  142.4862  167.9070 N.ar    1  UNL1       -0.2236
@<TRIPOS>BOND
     1     9    10    1
     2    10    11    1
     3    10     1    1
     4     1     2   ar
     5     2     3   ar
     6     3     4   ar
     7     4    12    1
     8    12    13    2
     9    13    14    1
    10    14    15   ar
    11    15    16   ar
    12    16    17   ar
    13    17    18   ar
    14    18    19   ar
    15     4     5   ar
    16     5     6    1
    17     5     7   ar
    18     7     1   ar
    19    19    14   ar
    20     6     8    1
@<TRIPOS>MOLECULE
*****
 19 20 0 0 0
SMALL
GASTEIGER

@<TRIPOS>ATOM
      1 C         138.6099  139.2383  164.1412 C.ar    1  UNL1        0.0511
      2 C         138.6175  138.0755  163.1937 C.ar    1  UNL1        0.0163
      3 C         138.2317  138.2753  161.7580 C.ar    1  UNL1        0.0253
      4 C         137.8382  139.6379  161.2698 C.ar    1  UNL1        0.1365
      5 C         137.8306  140.8007  162.2173 C.ar    1  UNL1        0.1541
      6 O         137.4371  142.1635  161.7291 O.3     1  UNL1       -0.5039
      7 C         138.2164  140.6009  163.6530 C.ar    1  UNL1        0.0527
      8 H         137.1961  142.2883  160.8323 H       1  UNL1        0.2923
      9 C         140.4122  139.2705  166.0121 C.3     1  UNL1        0.1122
     10 N         138.9957  139.0384  165.5769 N.pl3   1  UNL1       -0.3040
     11 C         137.9649  138.6066  166.5773 C.3     1  UNL1        0.1122
     12 N         137.4524  139.8378  159.8341 N.2     1  UNL1       -0.1435
     13 N         138.2101  140.8128  158.9826 N.2     1  UNL1       -0.1284
     14 C         137.8243  141.0127  157.5469 C.ar    1  UNL1        0.1838
     15 C         137.3284  142.3501  157.0828 C.ar    1  UNL1        0.0406
     16 C         136.9425  142.5500  155.6471 C.ar    1  UNL1        0.0048
     17 C         137.0527  141.4123  154.6755 C.ar    1  UNL1        0.0208
     18 C         137.5486  140.0750  155.1397 C.ar    1  UNL1        0.1006
     19 N         137.9344  139.8752  156.5754 N.ar    1  UNL1       -0.2236
@<TRIPOS>BOND
     1     9    10    1
     2    10    11    1
     3    10     1    1
     4     1     2   ar
     5     2     3   ar
     6     3     4   ar
     7     4    12    1
     8    12    13    2
     9    13    14    1
    10    14    15   ar
    11    15    16   ar
    12    16    17   ar
    13    17    18   ar
    14    18    19   ar
    15     4     5   ar
    16     5     6    1
    17     5     7   ar
    18     7     1   ar
    19    19    14   ar
    20     6     8    1
@<TRIPOS>MOLECULE
*****
 19 20 0 0 0
SMALL
GASTEIGER

@<TRIPOS>ATOM
      1 C         139.3849  140.5487  160.5071 C.ar    1  UNL1        0.0511
      2 C         140.6159  140.5777  161.3636 C.ar    1  UNL1        0.0163
      3 C         140.5011  140.8592  162.8325 C.ar    1  UNL1        0.0253
      4 C         139.1553  141.1115  163.4449 C.ar    1  UNL1        0.1365
      5 C         137.9243  141.0825  162.5883 C.ar    1  UNL1        0.1541
      6 O         136.5784  141.3349  163.2007 O.3     1  UNL1       -0.5039
      7 C         138.0391  140.8011  161.1194 C.ar    1  UNL1        0.0527
      8 H         136.5066  141.5106  164.1182 H       1  UNL1        0.2923
      9 C         140.7923  139.7606  158.4704 C.3     1  UNL1        0.1122
     10 N         139.4997  140.2673  159.0382 N.pl3   1  UNL1       -0.3040
     11 C         138.3220  140.4926  158.1371 C.3     1  UNL1        0.1122
     12 N         139.0405  141.3929  164.9137 N.2     1  UNL1       -0.1435
     13 N         140.1989  141.1114  165.8241 N.2     1  UNL1       -0.1284
     14 C         140.0841  141.3928  167.2930 C.ar    1  UNL1        0.1838
     15 C         140.5321  142.7155  167.8405 C.ar    1  UNL1        0.0406
     16 C         140.4173  142.9969  169.3094 C.ar    1  UNL1        0.0048
     17 C         139.8545  141.9556  170.2308 C.ar    1  UNL1        0.0208
     18 C         139.4065  140.6329  169.6833 C.ar    1  UNL1        0.1006
     19 N         139.5213  140.3515  168.2144 N.ar    1  UNL1       -0.2236
@<TRIPOS>BOND
     1     9    10    1
     2    10    11    1
     3    10     1    1
     4     1     2   ar
     5     2     3   ar
     6     3     4   ar
     7     4    12    1
     8    12    13    2
     9    13    14    1
    10    14    15   ar
    11    15    16   ar
    12    16    17   ar
    13    17    18   ar
    14    18    19   ar
    15     4     5   ar
    16     5     6    1
    17     5     7   ar
    18     7     1   ar
    19    19    14   ar
    20     6     8    1
@<TRIPOS>MOLECULE
*****
 19 20 0 0 0
SMALL
GASTEIGER

@<TRIPOS>ATOM
      1 C         140.7204  144.2126  163.3043 C.ar    1  UNL1        0.0511
      2 C         141.7456  143.6144  162.3873 C.ar    1  UNL1        0.0163
      3 C         141.8723  144.1114  160.9777 C.ar    1  UNL1        0.0253
      4 C         140.9736  145.2067  160.4851 C.ar    1  UNL1        0.1365
      5 C         139.9484  145.8050  161.4021 C.ar    1  UNL1        0.1541
      6 O         139.0497  146.9004  160.9095 O.3     1  UNL1       -0.5039
      7 C         139.8217  145.3079  162.8117 C.ar    1  UNL1        0.0527
      8 H         139.1288  147.2109  160.0290 H       1  UNL1        0.2923
      9 C         139.3618  144.0268  165.5110 C.3     1  UNL1        0.1122
     10 N         140.5937  143.7156  164.7139 N.pl3   1  UNL1       -0.3040
     11 C         141.6990  142.9073  165.3263 C.3     1  UNL1        0.1122
     12 N         141.1003  145.7038  159.0756 N.2     1  UNL1       -0.1435
     13 N         139.8768  145.8566  158.2214 N.2     1  UNL1       -0.1284
     14 C         140.0034  146.3537  156.8118 C.ar    1  UNL1        0.1838
     15 C         141.0625  145.7913  155.9106 C.ar    1  UNL1        0.0406
     16 C         141.1891  146.2883  154.5010 C.ar    1  UNL1        0.0048
     17 C         140.2567  147.3478  153.9927 C.ar    1  UNL1        0.0208
     18 C         139.1977  147.9101  154.8939 C.ar    1  UNL1        0.1006
     19 N         139.0710  147.4130  156.3035 N.ar    1  UNL1       -0.2236
@<TRIPOS>BOND
     1     9    10    1
     2    10    11    1
     3    10     1    1
     4     1     2   ar
     5     2     3   ar
     6     3     4   ar
     7     4    12    1
     8    12    13    2
     9    13    14    1
    10    14    15   ar
    11    15    16   ar
    12    16    17   ar
    13    17    18   ar
    14    18    19   ar
    15     4     5   ar
    16     5     6    1
    17     5     7   ar
    18     7     1   ar
    19    19    14   ar
    20     6     8    1
@<TRIPOS>MOLECULE
*****
 19 20 0 0 0
SMALL
GASTEIGER

@<TRIPOS>ATOM
      1 C         138.3771  139.6280  164.8464 C.ar    1  UNL1        0.0511
      2 C         137.8292  140.9395  164.3673 C.ar    1  UNL1        0.0163
      3 C         137.5781  141.1582  162.9048 C.ar    1  UNL1        0.0253
      4 C         137.8749  140.0653  161.9212 C.ar    1  UNL1        0.1365
      5 C         138.4228  138.7537  162.4002 C.ar    1  UNL1        0.1541
      6 O         138.7196  137.6607  161.4167 O.3     1  UNL1       -0.5039
      7 C         138.6739  138.5351  163.8628 C.ar    1  UNL1        0.0527
      8 H         138.5628  137.7973  160.5030 H       1  UNL1        0.2923
      9 C         137.6995  138.5442  167.1083 C.3     1  UNL1        0.1122
     10 N         138.6283  139.4093  166.3089 N.pl3   1  UNL1       -0.3040
     11 C         139.8081  140.0558  166.9722 C.3     1  UNL1        0.1122
     12 N         137.6237  140.2839  160.4586 N.2     1  UNL1       -0.1435
     13 N         138.7100  140.0081  159.4617 N.2     1  UNL1       -0.1284
     14 C         138.4588  140.2267  157.9991 C.ar    1  UNL1        0.1838
     15 C         137.7794  141.4806  157.5340 C.ar    1  UNL1        0.0406
     16 C         137.5283  141.6993  156.0715 C.ar    1  UNL1        0.0048
     17 C         137.9566  140.6640  155.0740 C.ar    1  UNL1        0.0208
     18 C         138.6360  139.4102  155.5391 C.ar    1  UNL1        0.1006
     19 N         138.8871  139.1916  157.0016 N.ar    1  UNL1       -0.2236
@<TRIPOS>BOND
     1     9    10    1
     2    10    11    1
     3    10     1    1
     4     1     2   ar
     5     2     3   ar
     6     3     4   ar
     7     4    12    1
     8    12    13    2
     9    13    14    1
    10    14    15   ar
    11    15    16   ar
    12    16    17   ar
    13    17    18   ar
    14    18    19   ar
    15     4     5   ar
    16     5     6    1
    17     5     7   ar
    18     7     1   ar
    19    19    14   ar
    20     6     8    1
@<TRIPOS>MOLECULE
*****
 19 20 0 0 0
SMALL
GASTEIGER

@<TRIPOS>ATOM
      1 C         142.7207  138.6929  160.5634 C.ar    1  UNL1        0.0511
      2 C         141.3481  138.3073  161.0293 C.ar    1  UNL1        0.0163
      3 C         141.0380  138.2660  162.4963 C.ar    1  UNL1        0.0253
      4 C         142.1006  138.6104  163.4974 C.ar    1  UNL1        0.1365
      5 C         143.4732  138.9960  163.0316 C.ar    1  UNL1        0.1541
      6 O         144.5358  139.3405  164.0327 O.3     1  UNL1       -0.5039
      7 C         143.7833  139.0373  161.5645 C.ar    1  UNL1        0.0527
      8 H         144.3422  139.3147  164.9491 H       1  UNL1        0.2923
      9 C         143.6975  139.9404  158.5044 C.3     1  UNL1        0.1122
     10 N         143.0308  138.7342  159.0964 N.pl3   1  UNL1       -0.3040
     11 C         142.6742  137.5693  158.2214 C.3     1  UNL1        0.1122
     12 N         141.7905  138.5691  164.9645 N.2     1  UNL1       -0.1435
     13 N         142.1026  139.7533  165.8306 N.2     1  UNL1       -0.1284
     14 C         141.7925  139.7120  167.2976 C.ar    1  UNL1        0.1838
     15 C         140.4411  140.1369  167.7908 C.ar    1  UNL1        0.0406
     16 C         140.1310  140.0957  169.2578 C.ar    1  UNL1        0.0048
     17 C         141.1724  139.6295  170.2317 C.ar    1  UNL1        0.0208
     18 C         142.5237  139.2046  169.7385 C.ar    1  UNL1        0.1006
     19 N         142.8338  139.2459  168.2715 N.ar    1  UNL1       -0.2236
@<TRIPOS>BOND
     1     9    10    1
     2    10    11    1
     3    10     1    1
     4     1     2   ar
     5     2     3   ar
     6     3     4   ar
     7     4    12    1
     8    12    13    2
     9    13    14    1
    10    14    15   ar
    11    15    16   ar
    12    16    17   ar
    13    17    18   ar
    14    18    19   ar
    15     4     5   ar
    16     5     6    1
    17     5     7   ar
    18     7     1   ar
    19    19    14   ar
    20     6     8    1
@<TRIPOS>MOLECULE
*****
 19 20 0 0 0
SMALL
GASTEIGER

@<TRIPOS>ATOM
      1 C         142.5605  143.7474  163.7582 C.ar    1  UNL1        0.0511
      2 C         142.8943  143.0008  162.5008 C.ar    1  UNL1        0.0163
      3 C         142.3442  143.4645  161.1847 C.ar    1  UNL1        0.0253
      4 C         141.4602  144.6748  161.1258 C.ar    1  UNL1        0.1365
      5 C         141.1263  145.4214  162.3832 C.ar    1  UNL1        0.1541
      6 O         140.2422  146.6319  162.3244 O.3     1  UNL1       -0.5039
      7 C         141.6764  144.9577  163.6994 C.ar    1  UNL1        0.0527
      8 H         139.8985  146.9215  161.5023 H       1  UNL1        0.2923
      9 C         142.2548  142.4717  166.0007 C.3     1  UNL1        0.1122
     10 N         143.1106  143.2837  165.0744 N.pl3   1  UNL1       -0.3040
     11 C         144.5165  143.6320  165.4642 C.3     1  UNL1        0.1122
     12 N         140.9100  145.1385  159.8097 N.2     1  UNL1       -0.1435
     13 N         141.8177  145.2739  158.6232 N.2     1  UNL1       -0.1284
     14 C         141.2676  145.7376  157.3070 C.ar    1  UNL1        0.1838
     15 C         139.9768  146.5005  157.2606 C.ar    1  UNL1        0.0406
     16 C         139.4267  146.9642  155.9444 C.ar    1  UNL1        0.0048
     17 C         140.1673  146.6650  154.6747 C.ar    1  UNL1        0.0208
     18 C         141.4579  145.9021  154.7212 C.ar    1  UNL1        0.1006
     19 N         142.0081  145.4384  156.0374 N.ar    1  UNL1       -0.2236
@<TRIPOS>BOND
     1     9    10    1
     2    10    11    1
     3    10     1    1
     4     1     2   ar
     5     2     3   ar
     6     3     4   ar
     7     4    12    1
     8    12    13    2
     9    13    14    1
    10    14    15   ar
    11    15    16   ar
    12    16    17   ar
    13    17    18   ar
    14    18    19   ar
    15     4     5   ar
    16     5     6    1
    17     5     7   ar
    18     7     1   ar
    19    19    14   ar
    20     6     8    1
