@<TRIPOS>MOLECULE
*****
 27 29 0 0 0
SMALL
GASTEIGER

@<TRIPOS>ATOM
      1 C         141.7045  140.6878  170.0299 C.ar    1  UNL1        0.0740
      2 C         141.7134  141.3368  171.3822 C.ar    1  UNL1        0.0133
      3 C         140.7646  142.4980  171.3454 C.ar    1  UNL1        0.0368
      4 S         140.1692  142.5667  169.9704 S.2     1  UNL1       -0.0715
      5 C         140.7501  141.4480  169.1573 C.ar    1  UNL1        0.0854
      6 C         143.6644  137.2426  170.2275 C.2     1  UNL1        0.4076
      7 O         144.1173  137.0921  168.8055 O.2     1  UNL1       -0.2260
      8 N         142.8601  138.4412  170.6356 N.am    1  UNL1       -0.2174
      9 C         142.5087  139.4893  169.6218 C.2     1  UNL1        0.2557
     10 O         142.9617  139.3388  168.1996 O.2     1  UNL1       -0.2696
     11 H         142.5629  138.5399  171.5690 H       1  UNL1        0.1612
     12 O         144.0157  136.1945  171.2414 O.3     1  UNL1       -0.4344
     13 C         145.8445  134.9895  172.6392 C.3     1  UNL1        0.0513
     14 C         145.4459  135.7834  171.4305 C.3     1  UNL1        0.2102
     15 N         140.4323  141.1429  167.7234 N.am    1  UNL1       -0.2736
     16 C         139.3864  140.1215  167.3879 C.2     1  UNL1        0.2738
     17 O         138.6581  139.4052  168.4863 O.2     1  UNL1       -0.2676
     18 H         140.9103  141.6131  167.0025 H       1  UNL1        0.1557
     19 C         139.0686  139.8165  165.9540 C.ar    1  UNL1        0.1643
     20 N         138.3804  140.7354  164.9887 N.ar    1  UNL1       -0.2337
     21 C         138.2698  140.0258  163.6718 C.ar    1  UNL1        0.0880
     22 C         137.6847  140.4404  162.3543 C.ar    1  UNL1        0.0196
     23 C         137.7195  139.4975  161.1883 C.ar    1  UNL1        0.0016
     24 C         138.3393  138.1400  161.3397 C.ar    1  UNL1        0.0006
     25 C         138.9244  137.7254  162.6572 C.ar    1  UNL1        0.0080
     26 C         138.8896  138.6683  163.8232 C.ar    1  UNL1        0.0486
     27 S         139.3833  138.5390  165.2337 S.2     1  UNL1       -0.0620
@<TRIPOS>BOND
     1    13    14    1
     2    14    12    1
     3    12     6    1
     4     6     7    2
     5     6     8   am
     6     8     9   am
     7     9    10    2
     8     9     1    1
     9     1     2   ar
    10     2     3   ar
    11     3     4   ar
    12     4     5   ar
    13     5    15    1
    14    15    16   am
    15    16    17    2
    16    16    19    1
    17    19    20   ar
    18    20    21   ar
    19    21    22   ar
    20    22    23   ar
    21    23    24   ar
    22    24    25   ar
    23    25    26   ar
    24    26    27   ar
    25     5     1   ar
    26    27    19   ar
    27    26    21   ar
    28     8    11    1
    29    15    18    1
@<TRIPOS>MOLECULE
*****
 27 29 0 0 0
SMALL
GASTEIGER

@<TRIPOS>ATOM
      1 C         140.8410  141.0848  169.8536 C.ar    1  UNL1        0.0740
      2 C         141.1893  141.6949  171.1790 C.ar    1  UNL1        0.0133
      3 C         142.4968  142.4144  171.0288 C.ar    1  UNL1        0.0368
      4 S         142.9567  142.2492  169.6107 S.2     1  UNL1       -0.0715
      5 C         141.9334  141.4275  168.8843 C.ar    1  UNL1        0.0854
      6 C         137.3357  139.2778  170.2980 C.2     1  UNL1        0.4076
      7 O         137.1648  138.6540  168.9447 O.2     1  UNL1       -0.2260
      8 N         138.5611  140.0881  170.6009 N.am    1  UNL1       -0.2174
      9 C         139.6157  140.2746  169.5506 C.2     1  UNL1        0.2557
     10 O         139.4447  139.6507  168.1972 O.2     1  UNL1       -0.2696
     11 H         138.6733  140.4976  171.4892 H       1  UNL1        0.1612
     12 O         136.2812  139.0914  171.3484 O.3     1  UNL1       -0.4344
     13 C         135.3506  137.6009  173.2621 C.3     1  UNL1        0.0513
     14 C         136.0407  137.7328  171.9369 C.3     1  UNL1        0.2102
     15 N         141.9921  141.0199  167.4419 N.am    1  UNL1       -0.2736
     16 C         142.6180  139.7122  167.0569 C.2     1  UNL1        0.2738
     17 O         143.1851  138.8121  168.1143 O.2     1  UNL1       -0.2676
     18 H         141.6199  141.6107  166.7479 H       1  UNL1        0.1557
     19 C         142.6767  139.3046  165.6146 C.ar    1  UNL1        0.1643
     20 N         141.6037  138.5776  164.8594 N.ar    1  UNL1       -0.2337
     21 C         142.0826  138.3762  163.4522 C.ar    1  UNL1        0.0880
     22 C         141.4490  137.7220  162.2604 C.ar    1  UNL1        0.0196
     23 C         142.1842  137.6703  160.9540 C.ar    1  UNL1        0.0016
     24 C         143.5531  138.2728  160.8395 C.ar    1  UNL1        0.0006
     25 C         144.1867  138.9270  162.0313 C.ar    1  UNL1        0.0080
     26 C         143.4515  138.9787  163.3377 C.ar    1  UNL1        0.0486
     27 S         143.8186  139.5525  164.6741 S.2     1  UNL1       -0.0620
@<TRIPOS>BOND
     1    13    14    1
     2    14    12    1
     3    12     6    1
     4     6     7    2
     5     6     8   am
     6     8     9   am
     7     9    10    2
     8     9     1    1
     9     1     2   ar
    10     2     3   ar
    11     3     4   ar
    12     4     5   ar
    13     5    15    1
    14    15    16   am
    15    16    17    2
    16    16    19    1
    17    19    20   ar
    18    20    21   ar
    19    21    22   ar
    20    22    23   ar
    21    23    24   ar
    22    24    25   ar
    23    25    26   ar
    24    26    27   ar
    25     5     1   ar
    26    27    19   ar
    27    26    21   ar
    28     8    11    1
    29    15    18    1
@<TRIPOS>MOLECULE
*****
 27 29 0 0 0
SMALL
GASTEIGER

@<TRIPOS>ATOM
      1 C         140.2849  140.8379  169.3402 C.ar    1  UNL1        0.0740
      2 C         140.7886  140.5014  170.7125 C.ar    1  UNL1        0.0133
      3 C         141.7557  141.5707  171.1265 C.ar    1  UNL1        0.0368
      4 S         141.8498  142.5681  170.0101 S.2     1  UNL1       -0.0715
      5 C         140.9408  142.1152  168.9061 C.ar    1  UNL1        0.0854
      6 C         138.5499  138.9960  166.2829 C.2     1  UNL1        0.4076
      7 O         137.3260  138.4373  166.9462 O.2     1  UNL1       -0.2260
      8 N         139.5362  139.7962  167.0810 N.am    1  UNL1       -0.2174
      9 C         139.2987  140.0377  168.5423 C.2     1  UNL1        0.2557
     10 O         138.0747  139.4790  169.2055 O.2     1  UNL1       -0.2696
     11 H         140.3395  140.1629  166.6457 H       1  UNL1        0.1612
     12 O         138.7875  138.7545  164.8217 O.3     1  UNL1       -0.4344
     13 C         138.0074  141.1068  164.0419 C.3     1  UNL1        0.0513
     14 C         138.9040  139.9154  163.8789 C.3     1  UNL1        0.2102
     15 N         140.7255  142.8165  167.5977 N.am    1  UNL1       -0.2736
     16 C         141.4623  142.3617  166.3729 C.2     1  UNL1        0.2738
     17 O         142.4143  141.2057  166.4564 O.2     1  UNL1       -0.2676
     18 H         140.1006  143.5753  167.5429 H       1  UNL1        0.1557
     19 C         141.2470  143.0630  165.0645 C.ar    1  UNL1        0.1643
     20 N         142.0543  142.8668  163.8156 N.ar    1  UNL1       -0.2337
     21 C         141.4928  143.7662  162.7546 C.ar    1  UNL1        0.0880
     22 C         141.8836  143.9974  161.3250 C.ar    1  UNL1        0.0196
     23 C         141.1199  144.9808  160.4885 C.ar    1  UNL1        0.0016
     24 C         139.9655  145.7329  161.0816 C.ar    1  UNL1        0.0006
     25 C         139.5748  145.5016  162.5111 C.ar    1  UNL1        0.0080
     26 C         140.3385  144.5183  163.3477 C.ar    1  UNL1        0.0486
     27 S         140.1865  144.0837  164.7753 S.2     1  UNL1       -0.0620
@<TRIPOS>BOND
     1    13    14    1
     2    14    12    1
     3    12     6    1
     4     6     7    2
     5     6     8   am
     6     8     9   am
     7     9    10    2
     8     9     1    1
     9     1     2   ar
    10     2     3   ar
    11     3     4   ar
    12     4     5   ar
    13     5    15    1
    14    15    16   am
    15    16    17    2
    16    16    19    1
    17    19    20   ar
    18    20    21   ar
    19    21    22   ar
    20    22    23   ar
    21    23    24   ar
    22    24    25   ar
    23    25    26   ar
    24    26    27   ar
    25     5     1   ar
    26    27    19   ar
    27    26    21   ar
    28     8    11    1
    29    15    18    1
@<TRIPOS>MOLECULE
*****
 27 29 0 0 0
SMALL
GASTEIGER

@<TRIPOS>ATOM
      1 C         142.4759  142.2038  160.9859 C.ar    1  UNL1        0.0740
      2 C         143.0198  141.6302  159.7111 C.ar    1  UNL1        0.0133
      3 C         143.7374  140.3560  160.0450 C.ar    1  UNL1        0.0368
      4 S         143.6370  140.1421  161.5263 S.2     1  UNL1       -0.0715
      5 C         142.8574  141.2841  162.1078 C.ar    1  UNL1        0.0854
      6 C         139.5242  144.7157  161.8392 C.2     1  UNL1        0.4076
      7 O         140.1146  146.0145  161.3763 O.2     1  UNL1       -0.2260
      8 N         140.3113  143.4454  161.7090 N.am    1  UNL1       -0.2174
      9 C         141.6889  143.4740  161.1160 C.2     1  UNL1        0.2557
     10 O         142.2793  144.7730  160.6531 O.2     1  UNL1       -0.2696
     11 H         139.9238  142.5929  162.0128 H       1  UNL1        0.1612
     12 O         138.1467  144.6870  162.4322 O.3     1  UNL1       -0.4344
     13 C         138.4720  144.6426  165.0094 C.3     1  UNL1        0.0513
     14 C         137.9152  144.0279  163.7596 C.3     1  UNL1        0.2102
     15 N         142.5187  141.4731  163.5568 N.am    1  UNL1       -0.2736
     16 C         141.1432  141.1417  164.0549 C.2     1  UNL1        0.2738
     17 O         140.1065  140.6213  163.1041 O.2     1  UNL1       -0.2676
     18 H         143.1992  141.8147  164.1809 H       1  UNL1        0.1557
     19 C         140.8046  141.3308  165.5039 C.ar    1  UNL1        0.1643
     20 N         141.0510  142.5698  166.3126 N.ar    1  UNL1       -0.2337
     21 C         140.5587  142.3188  167.7071 C.ar    1  UNL1        0.0880
     22 C         140.5407  143.1797  168.9353 C.ar    1  UNL1        0.0196
     23 C         139.9721  142.6463  170.2168 C.ar    1  UNL1        0.0016
     24 C         139.4214  141.2520  170.2699 C.ar    1  UNL1        0.0006
     25 C         139.4394  140.3912  169.0417 C.ar    1  UNL1        0.0080
     26 C         140.0080  140.9246  167.7603 C.ar    1  UNL1        0.0486
     27 S         140.1600  140.3140  166.3987 S.2     1  UNL1       -0.0620
@<TRIPOS>BOND
     1    13    14    1
     2    14    12    1
     3    12     6    1
     4     6     7    2
     5     6     8   am
     6     8     9   am
     7     9    10    2
     8     9     1    1
     9     1     2   ar
    10     2     3   ar
    11     3     4   ar
    12     4     5   ar
    13     5    15    1
    14    15    16   am
    15    16    17    2
    16    16    19    1
    17    19    20   ar
    18    20    21   ar
    19    21    22   ar
    20    22    23   ar
    21    23    24   ar
    22    24    25   ar
    23    25    26   ar
    24    26    27   ar
    25     5     1   ar
    26    27    19   ar
    27    26    21   ar
    28     8    11    1
    29    15    18    1
@<TRIPOS>MOLECULE
*****
 27 29 0 0 0
SMALL
GASTEIGER

@<TRIPOS>ATOM
      1 C         140.6092  142.8283  161.0049 C.ar    1  UNL1        0.0740
      2 C         140.0317  142.8960  159.6221 C.ar    1  UNL1        0.0133
      3 C         138.6668  142.2750  159.6589 C.ar    1  UNL1        0.0368
      4 S         138.4006  141.8236  161.0644 S.2     1  UNL1       -0.0715
      5 C         139.6010  142.1656  161.8963 C.ar    1  UNL1        0.0854
      6 C         144.4175  142.8725  162.1206 C.2     1  UNL1        0.4076
      7 O         144.6553  144.3470  162.2589 O.2     1  UNL1       -0.2260
      8 N         143.0688  142.3663  161.7025 N.am    1  UNL1       -0.2174
      9 C         141.9578  143.3345  161.4229 C.2     1  UNL1        0.2557
     10 O         142.1956  144.8092  161.5613 O.2     1  UNL1       -0.2696
     11 H         142.9128  141.3985  161.6117 H       1  UNL1        0.1612
     12 O         145.5284  141.9042  162.4002 O.3     1  UNL1       -0.4344
     13 C         144.9305  139.9565  164.0124 C.3     1  UNL1        0.0513
     14 C         145.6352  141.2540  163.7477 C.3     1  UNL1        0.2102
     15 N         139.7647  141.8927  163.3621 N.am    1  UNL1       -0.2736
     16 C         140.6480  140.7711  163.8222 C.2     1  UNL1        0.2738
     17 O         141.3677  139.9223  162.8164 O.2     1  UNL1       -0.2676
     18 H         139.2923  142.4497  164.0223 H       1  UNL1        0.1557
     19 C         140.8116  140.4982  165.2881 C.ar    1  UNL1        0.1643
     20 N         142.0268  139.9148  165.9461 N.ar    1  UNL1       -0.2337
     21 C         141.7550  139.8168  167.4180 C.ar    1  UNL1        0.0880
     22 C         142.5883  139.3191  168.5616 C.ar    1  UNL1        0.0196
     23 C         142.0383  139.3442  169.9569 C.ar    1  UNL1        0.0016
     24 C         140.6551  139.8670  170.2086 C.ar    1  UNL1        0.0006
     25 C         139.8218  140.3647  169.0650 C.ar    1  UNL1        0.0080
     26 C         140.3717  140.3396  167.6697 C.ar    1  UNL1        0.0486
     27 S         139.7887  140.7607  166.3533 S.2     1  UNL1       -0.0620
@<TRIPOS>BOND
     1    13    14    1
     2    14    12    1
     3    12     6    1
     4     6     7    2
     5     6     8   am
     6     8     9   am
     7     9    10    2
     8     9     1    1
     9     1     2   ar
    10     2     3   ar
    11     3     4   ar
    12     4     5   ar
    13     5    15    1
    14    15    16   am
    15    16    17    2
    16    16    19    1
    17    19    20   ar
    18    20    21   ar
    19    21    22   ar
    20    22    23   ar
    21    23    24   ar
    22    24    25   ar
    23    25    26   ar
    24    26    27   ar
    25     5     1   ar
    26    27    19   ar
    27    26    21   ar
    28     8    11    1
    29    15    18    1
@<TRIPOS>MOLECULE
*****
 27 29 0 0 0
SMALL
GASTEIGER

@<TRIPOS>ATOM
      1 C         141.2666  139.5464  161.1808 C.ar    1  UNL1        0.0740
      2 C         141.7824  139.0364  159.8678 C.ar    1  UNL1        0.0133
      3 C         143.2160  138.6372  160.0564 C.ar    1  UNL1        0.0368
      4 S         143.5862  138.9005  161.4860 S.2     1  UNL1       -0.0715
      5 C         142.3815  139.4624  162.1809 C.ar    1  UNL1        0.0854
      6 C         138.2188  142.0317  161.7137 C.2     1  UNL1        0.4076
      7 O         137.1055  141.0621  161.9793 O.2     1  UNL1       -0.2260
      8 N         139.6058  141.5264  161.4476 N.am    1  UNL1       -0.2174
      9 C         139.8797  140.0516  161.4469 C.2     1  UNL1        0.2557
     10 O         138.7663  139.0820  161.7125 O.2     1  UNL1       -0.2696
     11 H         140.3365  142.1628  161.2733 H       1  UNL1        0.1612
     12 O         137.9451  143.5065  161.7143 O.3     1  UNL1       -0.4344
     13 C         137.8212  143.6799  164.3037 C.3     1  UNL1        0.0513
     14 C         138.1250  144.3022  162.9731 C.3     1  UNL1        0.2102
     15 N         142.3050  139.8690  163.6227 N.am    1  UNL1       -0.2736
     16 C         142.2007  141.3200  163.9883 C.2     1  UNL1        0.2738
     17 O         142.1728  142.3644  162.9121 O.2     1  UNL1       -0.2676
     18 H         142.3233  139.1835  164.3291 H       1  UNL1        0.1557
     19 C         142.1242  141.7265  165.4301 C.ar    1  UNL1        0.1643
     20 N         143.2528  141.6904  166.4175 N.ar    1  UNL1       -0.2337
     21 C         142.7318  142.1821  167.7353 C.ar    1  UNL1        0.0880
     22 C         143.3909  142.3642  169.0704 C.ar    1  UNL1        0.0196
     23 C         142.5993  142.8863  170.2326 C.ar    1  UNL1        0.0016
     24 C         141.1486  143.2264  170.0597 C.ar    1  UNL1        0.0006
     25 C         140.4895  143.0443  168.7247 C.ar    1  UNL1        0.0080
     26 C         141.2811  142.5222  167.5625 C.ar    1  UNL1        0.0486
     27 S         140.9056  142.2406  166.1378 S.2     1  UNL1       -0.0620
@<TRIPOS>BOND
     1    13    14    1
     2    14    12    1
     3    12     6    1
     4     6     7    2
     5     6     8   am
     6     8     9   am
     7     9    10    2
     8     9     1    1
     9     1     2   ar
    10     2     3   ar
    11     3     4   ar
    12     4     5   ar
    13     5    15    1
    14    15    16   am
    15    16    17    2
    16    16    19    1
    17    19    20   ar
    18    20    21   ar
    19    21    22   ar
    20    22    23   ar
    21    23    24   ar
    22    24    25   ar
    23    25    26   ar
    24    26    27   ar
    25     5     1   ar
    26    27    19   ar
    27    26    21   ar
    28     8    11    1
    29    15    18    1
@<TRIPOS>MOLECULE
*****
 27 29 0 0 0
SMALL
GASTEIGER

@<TRIPOS>ATOM
      1 C         141.9779  144.1461  161.7812 C.ar    1  UNL1        0.0740
      2 C         141.5742  144.7353  160.4621 C.ar    1  UNL1        0.0133
      3 C         140.2493  145.4146  160.6438 C.ar    1  UNL1        0.0368
      4 S         139.8340  145.2453  162.0752 S.2     1  UNL1       -0.0715
      5 C         140.9023  144.4614  162.7782 C.ar    1  UNL1        0.0854
      6 C         144.4312  141.1291  162.5741 C.2     1  UNL1        0.4076
      7 O         145.7525  141.8384  162.6033 O.2     1  UNL1       -0.2260
      8 N         143.1730  141.8984  162.3000 N.am    1  UNL1       -0.2174
      9 C         143.2360  143.3769  162.0552 C.2     1  UNL1        0.2557
     10 O         144.5575  144.0862  162.0845 O.2     1  UNL1       -0.2696
     11 H         142.3057  141.4328  162.2808 H       1  UNL1        0.1612
     12 O         144.3680  139.6505  162.8188 O.3     1  UNL1       -0.4344
     13 C         143.8109  138.8879  165.2392 C.3     1  UNL1        0.0513
     14 C         143.3921  139.0961  163.8140 C.3     1  UNL1        0.2102
     15 N         140.8962  144.0627  164.2242 N.am    1  UNL1       -0.2736
     16 C         140.6109  142.6412  164.6090 C.2     1  UNL1        0.2738
     17 O         140.3318  141.6185  163.5478 O.2     1  UNL1       -0.2676
     18 H         141.0794  144.7339  164.9207 H       1  UNL1        0.1557
     19 C         140.6048  142.2425  166.0550 C.ar    1  UNL1        0.1643
     20 N         140.4010  143.1622  167.2224 N.ar    1  UNL1       -0.2337
     21 C         140.4716  142.3422  168.4764 C.ar    1  UNL1        0.0880
     22 C         140.3426  142.7101  169.9248 C.ar    1  UNL1        0.0196
     23 C         140.4610  141.6516  170.9809 C.ar    1  UNL1        0.0016
     24 C         140.7084  140.2251  170.5886 C.ar    1  UNL1        0.0006
     25 C         140.8375  139.8571  169.1402 C.ar    1  UNL1        0.0080
     26 C         140.7191  140.9157  168.0841 C.ar    1  UNL1        0.0486
     27 S         140.8014  140.8541  166.5877 S.2     1  UNL1       -0.0620
@<TRIPOS>BOND
     1    13    14    1
     2    14    12    1
     3    12     6    1
     4     6     7    2
     5     6     8   am
     6     8     9   am
     7     9    10    2
     8     9     1    1
     9     1     2   ar
    10     2     3   ar
    11     3     4   ar
    12     4     5   ar
    13     5    15    1
    14    15    16   am
    15    16    17    2
    16    16    19    1
    17    19    20   ar
    18    20    21   ar
    19    21    22   ar
    20    22    23   ar
    21    23    24   ar
    22    24    25   ar
    23    25    26   ar
    24    26    27   ar
    25     5     1   ar
    26    27    19   ar
    27    26    21   ar
    28     8    11    1
    29    15    18    1
@<TRIPOS>MOLECULE
*****
 27 29 0 0 0
SMALL
GASTEIGER

@<TRIPOS>ATOM
      1 C         140.4344  140.8441  169.4332 C.ar    1  UNL1        0.0740
      2 C         140.5515  141.2299  170.8780 C.ar    1  UNL1        0.0133
      3 C         141.8032  142.0401  171.0415 C.ar    1  UNL1        0.0368
      4 S         142.4597  142.1551  169.6977 S.2     1  UNL1       -0.0715
      5 C         141.6138  141.4159  168.7037 C.ar    1  UNL1        0.0854
      6 C         138.2538  138.8945  166.7510 C.2     1  UNL1        0.4076
      7 O         137.1260  138.4004  167.6077 O.2     1  UNL1       -0.2260
      8 N         139.3566  139.7090  167.3595 N.am    1  UNL1       -0.2174
      9 C         139.3316  140.0295  168.8247 C.2     1  UNL1        0.2557
     10 O         138.2037  139.5354  169.6814 O.2     1  UNL1       -0.2696
     11 H         140.0968  140.0333  166.7973 H       1  UNL1        0.1612
     12 O         138.2788  138.5740  165.2858 O.3     1  UNL1       -0.4344
     13 C         139.8010  138.7427  163.1872 C.3     1  UNL1        0.0513
     14 C         139.5839  138.2933  164.6017 C.3     1  UNL1        0.2102
     15 N         141.8975  141.2735  167.2377 N.am    1  UNL1       -0.2736
     16 C         142.6609  140.0849  166.7334 C.2     1  UNL1        0.2738
     17 O         143.1408  139.0387  167.6952 O.2     1  UNL1       -0.2676
     18 H         141.5825  141.9602  166.6064 H       1  UNL1        0.1557
     19 C         142.9446  139.9425  165.2674 C.ar    1  UNL1        0.1643
     20 N         143.2641  138.6639  164.5513 N.ar    1  UNL1       -0.2337
     21 C         143.4755  138.9849  163.1013 C.ar    1  UNL1        0.0880
     22 C         143.8155  138.1230  161.9217 C.ar    1  UNL1        0.0196
     23 C         143.9667  138.7383  160.5622 C.ar    1  UNL1        0.0016
     24 C         143.7779  140.2154  160.3822 C.ar    1  UNL1        0.0006
     25 C         143.4378  141.0773  161.5618 C.ar    1  UNL1        0.0080
     26 C         143.2866  140.4620  162.9214 C.ar    1  UNL1        0.0486
     27 S         142.9585  141.0539  164.2600 S.2     1  UNL1       -0.0620
@<TRIPOS>BOND
     1    13    14    1
     2    14    12    1
     3    12     6    1
     4     6     7    2
     5     6     8   am
     6     8     9   am
     7     9    10    2
     8     9     1    1
     9     1     2   ar
    10     2     3   ar
    11     3     4   ar
    12     4     5   ar
    13     5    15    1
    14    15    16   am
    15    16    17    2
    16    16    19    1
    17    19    20   ar
    18    20    21   ar
    19    21    22   ar
    20    22    23   ar
    21    23    24   ar
    22    24    25   ar
    23    25    26   ar
    24    26    27   ar
    25     5     1   ar
    26    27    19   ar
    27    26    21   ar
    28     8    11    1
    29    15    18    1
@<TRIPOS>MOLECULE
*****
 27 29 0 0 0
SMALL
GASTEIGER

@<TRIPOS>ATOM
      1 C         140.7601  139.2082  161.6531 C.ar    1  UNL1        0.0740
      2 C         141.1318  138.5349  160.3652 C.ar    1  UNL1        0.0133
      3 C         142.5034  137.9498  160.5270 C.ar    1  UNL1        0.0368
      4 S         142.9796  138.2614  161.9148 S.2     1  UNL1       -0.0715
      5 C         141.9022  139.0391  162.6109 C.ar    1  UNL1        0.0854
      6 C         138.0972  142.1268  162.0279 C.2     1  UNL1        0.4076
      7 O         136.8975  141.3576  162.4958 O.2     1  UNL1       -0.2260
      8 N         139.3848  141.4103  161.7471 N.am    1  UNL1       -0.2174
      9 C         139.4727  139.9246  161.9340 C.2     1  UNL1        0.2557
     10 O         138.2728  139.1554  162.4019 O.2     1  UNL1       -0.2696
     11 H         140.1722  141.9152  161.4400 H       1  UNL1        0.1612
     12 O         138.0095  143.6125  161.8410 O.3     1  UNL1       -0.4344
     13 C         137.9274  144.1503  164.3814 C.3     1  UNL1        0.0513
     14 C         138.3194  144.5320  162.9848 C.3     1  UNL1        0.2102
     15 N         141.9573  139.5570  164.0176 N.am    1  UNL1       -0.2736
     16 C         141.1706  138.8767  165.0985 C.2     1  UNL1        0.2738
     17 O         140.3289  137.6787  164.7726 O.2     1  UNL1       -0.2676
     18 H         142.5097  140.3433  164.2314 H       1  UNL1        0.1557
     19 C         141.2256  139.3946  166.5052 C.ar    1  UNL1        0.1643
     20 N         140.0521  139.8349  167.3292 N.ar    1  UNL1       -0.2337
     21 C         140.5650  140.2754  168.6681 C.ar    1  UNL1        0.0880
     22 C         139.8673  140.8079  169.8846 C.ar    1  UNL1        0.0196
     23 C         140.6602  141.1723  171.1046 C.ar    1  UNL1        0.0016
     24 C         142.1508  141.0042  171.1081 C.ar    1  UNL1        0.0006
     25 C         142.8484  140.4718  169.8917 C.ar    1  UNL1        0.0080
     26 C         142.0555  140.1074  168.6717 C.ar    1  UNL1        0.0486
     27 S         142.4638  139.5630  167.3349 S.2     1  UNL1       -0.0620
@<TRIPOS>BOND
     1    13    14    1
     2    14    12    1
     3    12     6    1
     4     6     7    2
     5     6     8   am
     6     8     9   am
     7     9    10    2
     8     9     1    1
     9     1     2   ar
    10     2     3   ar
    11     3     4   ar
    12     4     5   ar
    13     5    15    1
    14    15    16   am
    15    16    17    2
    16    16    19    1
    17    19    20   ar
    18    20    21   ar
    19    21    22   ar
    20    22    23   ar
    21    23    24   ar
    22    24    25   ar
    23    25    26   ar
    24    26    27   ar
    25     5     1   ar
    26    27    19   ar
    27    26    21   ar
    28     8    11    1
    29    15    18    1
