@<TRIPOS>MOLECULE
*****
 24 25 0 0 0
SMALL
GASTEIGER

@<TRIPOS>ATOM
      1 C         137.6991  141.5050  162.6197 C.ar    1  UNL1        0.1327
      2 N         137.6138  141.4105  161.1252 N.ar    1  UNL1       -0.1993
      3 C         137.9103  140.1106  160.4378 C.ar    1  UNL1        0.2148
      4 N         137.8250  140.0160  158.9431 N.pl3   1  UNL1       -0.3274
      5 N         138.2920  138.9053  161.2450 N.ar    1  UNL1       -0.2139
      6 C         138.3773  138.9999  162.7396 C.ar    1  UNL1        0.0868
      7 C         138.7590  137.7946  163.5468 C.ar    1  UNL1        0.0190
      8 C         138.8442  137.8892  165.0413 C.ar    1  UNL1       -0.0027
      9 C         138.5478  139.1891  165.7287 C.ar    1  UNL1       -0.0217
     10 C         138.6330  139.2836  167.2233 C.3     1  UNL1        0.0310
     11 C         138.1661  140.3943  164.9215 C.ar    1  UNL1        0.0000
     12 C         138.0808  140.2997  163.4270 C.ar    1  UNL1        0.0489
     13 H         137.5745  140.8071  158.4134 H       1  UNL1        0.1452
     14 H         138.0196  139.1629  158.4920 H       1  UNL1        0.1452
     15 N         137.4026  142.8049  163.3071 N.pl3   1  UNL1       -0.3195
     16 H         136.5105  142.9666  163.6908 H       1  UNL1        0.1481
     17 C         138.4654  143.8584  163.4099 C.3     1  UNL1        0.0729
     18 C         138.7565  144.5035  164.7324 C.3     1  UNL1        0.0196
     19 C         140.7947  142.9916  165.2896 C.3     1  UNL1        0.0001
     20 C         139.6104  143.7940  165.7411 C.3     1  UNL1        0.0017
     21 C         139.2370  144.2669  162.1901 C.3     1  UNL1        0.0512
     22 C         139.7730  145.6630  162.0744 C.3     1  UNL1        0.1389
     23 O         139.0281  146.6883  161.2720 O.3     1  UNL1       -0.3819
     24 H         139.0348  146.4337  160.3360 H       1  UNL1        0.2104
@<TRIPOS>BOND
     1    19    20    1
     2    20    18    1
     3    17    18    1
     4    17    21    1
     5    21    22    1
     6    22    23    1
     7    17    15    1
     8    15     1    1
     9     1     2   ar
    10     2     3   ar
    11     3     4    1
    12     3     5   ar
    13     5     6   ar
    14     6     7   ar
    15     7     8   ar
    16     8     9   ar
    17     9    10    1
    18     9    11   ar
    19    11    12   ar
    20    12     1   ar
    21    12     6   ar
    22    23    24    1
    23    15    16    1
    24     4    13    1
    25     4    14    1
@<TRIPOS>MOLECULE
*****
 24 25 0 0 0
SMALL
GASTEIGER

@<TRIPOS>ATOM
      1 C         142.5877  141.8254  167.6143 C.ar    1  UNL1        0.1327
      2 N         143.3340  142.6614  168.6114 N.ar    1  UNL1       -0.1993
      3 C         142.7836  142.8494  169.9940 C.ar    1  UNL1        0.2148
      4 N         143.5300  143.6854  170.9911 N.pl3   1  UNL1       -0.3274
      5 N         141.4869  142.2015  170.3796 N.ar    1  UNL1       -0.2139
      6 C         140.7405  141.3655  169.3825 C.ar    1  UNL1        0.0868
      7 C         139.4438  140.7176  169.7681 C.ar    1  UNL1        0.0190
      8 C         138.6975  139.8817  168.7710 C.ar    1  UNL1       -0.0027
      9 C         139.2479  139.6936  167.3884 C.ar    1  UNL1       -0.0217
     10 C         138.5015  138.8576  166.3913 C.3     1  UNL1        0.0310
     11 C         140.5446  140.3415  167.0028 C.ar    1  UNL1        0.0000
     12 C         141.2909  141.1775  167.9999 C.ar    1  UNL1        0.0489
     13 H         144.3811  144.1107  170.7380 H       1  UNL1        0.1452
     14 H         143.1688  143.8089  171.8986 H       1  UNL1        0.1452
     15 N         143.1381  141.6374  166.2317 N.pl3   1  UNL1       -0.3195
     16 H         143.6868  140.8469  166.0236 H       1  UNL1        0.1481
     17 C         142.8525  142.6537  165.1661 C.3     1  UNL1        0.0729
     18 C         141.5555  142.6077  164.4141 C.3     1  UNL1        0.0196
     19 C         139.6393  143.7137  165.7762 C.3     1  UNL1        0.0001
     20 C         140.5503  143.7080  164.5845 C.3     1  UNL1        0.0017
     21 C         143.8640  143.7161  164.8525 C.3     1  UNL1        0.0512
     22 C         144.1816  144.0515  163.4254 C.3     1  UNL1        0.1389
     23 O         143.8608  145.4138  162.8859 O.3     1  UNL1       -0.3819
     24 H         142.8988  145.5375  162.8715 H       1  UNL1        0.2104
@<TRIPOS>BOND
     1    19    20    1
     2    20    18    1
     3    17    18    1
     4    17    21    1
     5    21    22    1
     6    22    23    1
     7    17    15    1
     8    15     1    1
     9     1     2   ar
    10     2     3   ar
    11     3     4    1
    12     3     5   ar
    13     5     6   ar
    14     6     7   ar
    15     7     8   ar
    16     8     9   ar
    17     9    10    1
    18     9    11   ar
    19    11    12   ar
    20    12     1   ar
    21    12     6   ar
    22    23    24    1
    23    15    16    1
    24     4    13    1
    25     4    14    1
@<TRIPOS>MOLECULE
*****
 24 25 0 0 0
SMALL
GASTEIGER

@<TRIPOS>ATOM
      1 C         140.4984  145.1184  162.3149 C.ar    1  UNL1        0.1327
      2 N         139.9606  145.3443  160.9330 N.ar    1  UNL1       -0.1993
      3 C         140.7652  144.9273  159.7377 C.ar    1  UNL1        0.2148
      4 N         140.2274  145.1532  158.3557 N.pl3   1  UNL1       -0.3274
      5 N         142.1076  144.2845  159.9243 N.ar    1  UNL1       -0.2139
      6 C         142.6454  144.0587  161.3063 C.ar    1  UNL1        0.0868
      7 C         143.9878  143.4159  161.4929 C.ar    1  UNL1        0.0190
      8 C         144.5255  143.1900  162.8748 C.ar    1  UNL1       -0.0027
      9 C         143.7210  143.6070  164.0701 C.ar    1  UNL1       -0.0217
     10 C         144.2588  143.3811  165.4521 C.3     1  UNL1        0.0310
     11 C         142.3786  144.2498  163.8835 C.ar    1  UNL1        0.0000
     12 C         141.8408  144.4756  162.5016 C.ar    1  UNL1        0.0489
     13 H         139.3463  145.5751  158.2333 H       1  UNL1        0.1452
     14 H         140.7554  144.8795  157.5712 H       1  UNL1        0.1452
     15 N         139.6938  145.5354  163.5103 N.pl3   1  UNL1       -0.3195
     16 H         139.7465  146.4614  163.8404 H       1  UNL1        0.1481
     17 C         138.8091  144.5415  164.2026 C.3     1  UNL1        0.0729
     18 C         139.0949  144.1425  165.6200 C.3     1  UNL1        0.0196
     19 C         140.6302  142.7344  167.1725 C.3     1  UNL1        0.0001
     20 C         139.8384  142.8714  165.9059 C.3     1  UNL1        0.0017
     21 C         137.6384  143.9466  163.4775 C.3     1  UNL1        0.0512
     22 C         137.7492  142.5806  162.8677 C.3     1  UNL1        0.1389
     23 O         136.6789  141.5595  163.1159 O.3     1  UNL1       -0.3819
     24 H         136.6740  141.3180  164.0553 H       1  UNL1        0.2104
@<TRIPOS>BOND
     1    19    20    1
     2    20    18    1
     3    17    18    1
     4    17    21    1
     5    21    22    1
     6    22    23    1
     7    17    15    1
     8    15     1    1
     9     1     2   ar
    10     2     3   ar
    11     3     4    1
    12     3     5   ar
    13     5     6   ar
    14     6     7   ar
    15     7     8   ar
    16     8     9   ar
    17     9    10    1
    18     9    11   ar
    19    11    12   ar
    20    12     1   ar
    21    12     6   ar
    22    23    24    1
    23    15    16    1
    24     4    13    1
    25     4    14    1
@<TRIPOS>MOLECULE
*****
 24 25 0 0 0
SMALL
GASTEIGER

@<TRIPOS>ATOM
      1 C         139.5235  140.3478  166.8765 C.ar    1  UNL1        0.1327
      2 N         139.2735  139.8239  168.2595 N.ar    1  UNL1       -0.1993
      3 C         140.2828  140.0582  169.3442 C.ar    1  UNL1        0.2148
      4 N         140.0327  139.5342  170.7273 N.pl3   1  UNL1       -0.3274
      5 N         141.5421  140.8165  169.0457 N.ar    1  UNL1       -0.2139
      6 C         141.7922  141.3405  167.6626 C.ar    1  UNL1        0.0868
      7 C         143.0515  142.0987  167.3642 C.ar    1  UNL1        0.0190
      8 C         143.3015  142.6227  165.9811 C.ar    1  UNL1       -0.0027
      9 C         142.2922  142.3884  164.8965 C.ar    1  UNL1       -0.0217
     10 C         142.5423  142.9124  163.5134 C.3     1  UNL1        0.0310
     11 C         141.0329  141.6301  165.1949 C.ar    1  UNL1        0.0000
     12 C         140.7829  141.1062  166.5780 C.ar    1  UNL1        0.0489
     13 H         139.2061  139.0365  170.9232 H       1  UNL1        0.1452
     14 H         140.6951  139.6879  171.4392 H       1  UNL1        0.1452
     15 N         138.5142  140.1135  165.7918 N.pl3   1  UNL1       -0.3195
     16 H         137.6913  140.6530  165.7603 H       1  UNL1        0.1481
     17 C         138.7587  139.0573  164.7552 C.3     1  UNL1        0.0729
     18 C         139.4137  137.7644  165.1418 C.3     1  UNL1        0.0196
     19 C         141.9957  138.0354  165.0412 C.3     1  UNL1        0.0001
     20 C         140.7373  137.3865  164.5457 C.3     1  UNL1        0.0017
     21 C         138.3483  139.2940  163.3320 C.3     1  UNL1        0.0512
     22 C         137.9836  140.6758  162.8765 C.3     1  UNL1        0.1389
     23 O         136.6946  141.2976  163.3255 O.3     1  UNL1       -0.3819
     24 H         135.9491  140.8016  162.9524 H       1  UNL1        0.2104
@<TRIPOS>BOND
     1    19    20    1
     2    20    18    1
     3    17    18    1
     4    17    21    1
     5    21    22    1
     6    22    23    1
     7    17    15    1
     8    15     1    1
     9     1     2   ar
    10     2     3   ar
    11     3     4    1
    12     3     5   ar
    13     5     6   ar
    14     6     7   ar
    15     7     8   ar
    16     8     9   ar
    17     9    10    1
    18     9    11   ar
    19    11    12   ar
    20    12     1   ar
    21    12     6   ar
    22    23    24    1
    23    15    16    1
    24     4    13    1
    25     4    14    1
@<TRIPOS>MOLECULE
*****
 24 25 0 0 0
SMALL
GASTEIGER

@<TRIPOS>ATOM
      1 C         142.6269  141.9926  166.7445 C.ar    1  UNL1        0.1327
      2 N         143.6374  142.5397  167.7086 N.ar    1  UNL1       -0.1993
      3 C         143.4507  142.3415  169.1837 C.ar    1  UNL1        0.2148
      4 N         144.4613  142.8886  170.1478 N.pl3   1  UNL1       -0.3274
      5 N         142.2535  141.5962  169.6947 N.ar    1  UNL1       -0.2139
      6 C         141.2429  141.0491  168.7306 C.ar    1  UNL1        0.0868
      7 C         140.0456  140.3038  169.2415 C.ar    1  UNL1        0.0190
      8 C         139.0351  139.7568  168.2774 C.ar    1  UNL1       -0.0027
      9 C         139.2218  139.9550  166.8024 C.ar    1  UNL1       -0.0217
     10 C         138.2112  139.4079  165.8383 C.3     1  UNL1        0.0310
     11 C         140.4191  140.7003  166.2914 C.ar    1  UNL1        0.0000
     12 C         141.4296  141.2473  167.2555 C.ar    1  UNL1        0.0489
     13 H         145.2471  143.3778  169.8124 H       1  UNL1        0.1452
     14 H         144.3388  142.7585  171.1159 H       1  UNL1        0.1452
     15 N         142.8136  142.1908  165.2694 N.pl3   1  UNL1       -0.3195
     16 H         142.1309  141.8661  164.6388 H       1  UNL1        0.1481
     17 C         144.0405  142.8838  164.7552 C.3     1  UNL1        0.0729
     18 C         145.2293  142.0794  164.3199 C.3     1  UNL1        0.0196
     19 C         145.0057  139.4923  164.4049 C.3     1  UNL1        0.0001
     20 C         145.0316  140.7687  163.6175 C.3     1  UNL1        0.0017
     21 C         144.0786  144.3813  164.6762 C.3     1  UNL1        0.0512
     22 C         143.1198  145.1098  163.7818 C.3     1  UNL1        0.1389
     23 O         143.3714  145.1711  162.3043 O.3     1  UNL1       -0.3819
     24 H         144.1755  145.6865  162.1344 H       1  UNL1        0.2104
@<TRIPOS>BOND
     1    19    20    1
     2    20    18    1
     3    17    18    1
     4    17    21    1
     5    21    22    1
     6    22    23    1
     7    17    15    1
     8    15     1    1
     9     1     2   ar
    10     2     3   ar
    11     3     4    1
    12     3     5   ar
    13     5     6   ar
    14     6     7   ar
    15     7     8   ar
    16     8     9   ar
    17     9    10    1
    18     9    11   ar
    19    11    12   ar
    20    12     1   ar
    21    12     6   ar
    22    23    24    1
    23    15    16    1
    24     4    13    1
    25     4    14    1
@<TRIPOS>MOLECULE
*****
 24 25 0 0 0
SMALL
GASTEIGER

@<TRIPOS>ATOM
      1 C         142.4674  141.6376  165.9322 C.ar    1  UNL1        0.1327
      2 N         143.8551  141.2540  165.5114 N.ar    1  UNL1       -0.1993
      3 C         144.5519  142.0270  164.4312 C.ar    1  UNL1        0.2148
      4 N         145.9396  141.6433  164.0103 N.pl3   1  UNL1       -0.3274
      5 N         143.8610  143.1836  163.7718 N.ar    1  UNL1       -0.2139
      6 C         142.4732  143.5673  164.1926 C.ar    1  UNL1        0.0868
      7 C         141.7824  144.7239  163.5332 C.ar    1  UNL1        0.0190
      8 C         140.3947  145.1075  163.9540 C.ar    1  UNL1       -0.0027
      9 C         139.6979  144.3345  165.0342 C.ar    1  UNL1       -0.0217
     10 C         138.3101  144.7182  165.4551 C.3     1  UNL1        0.0310
     11 C         140.3888  143.1779  165.6936 C.ar    1  UNL1        0.0000
     12 C         141.7764  142.7943  165.2728 C.ar    1  UNL1        0.0489
     13 H         146.3931  140.8842  164.4431 H       1  UNL1        0.1452
     14 H         146.3970  142.1507  163.3013 H       1  UNL1        0.1452
     15 N         141.7706  140.8646  167.0125 N.pl3   1  UNL1       -0.3195
     16 H         141.0844  140.1990  166.7771 H       1  UNL1        0.1481
     17 C         142.1193  141.1056  168.4513 C.3     1  UNL1        0.0729
     18 C         142.6405  142.4444  168.8826 C.3     1  UNL1        0.0196
     19 C         140.4973  143.6775  169.6803 C.3     1  UNL1        0.0001
     20 C         141.9083  143.2329  169.9278 C.3     1  UNL1        0.0017
     21 C         141.9469  140.0077  169.4589 C.3     1  UNL1        0.0512
     22 C         140.6869  139.9238  170.2683 C.3     1  UNL1        0.1389
     23 O         140.6754  140.4024  171.6899 O.3     1  UNL1       -0.3819
     24 H         141.2512  139.8355  172.2265 H       1  UNL1        0.2104
@<TRIPOS>BOND
     1    19    20    1
     2    20    18    1
     3    17    18    1
     4    17    21    1
     5    21    22    1
     6    22    23    1
     7    17    15    1
     8    15     1    1
     9     1     2   ar
    10     2     3   ar
    11     3     4    1
    12     3     5   ar
    13     5     6   ar
    14     6     7   ar
    15     7     8   ar
    16     8     9   ar
    17     9    10    1
    18     9    11   ar
    19    11    12   ar
    20    12     1   ar
    21    12     6   ar
    22    23    24    1
    23    15    16    1
    24     4    13    1
    25     4    14    1
@<TRIPOS>MOLECULE
*****
 24 25 0 0 0
SMALL
GASTEIGER

@<TRIPOS>ATOM
      1 C         141.4499  142.4157  164.4006 C.ar    1  UNL1        0.1327
      2 N         141.4435  143.5354  163.4026 N.ar    1  UNL1       -0.1993
      3 C         142.5537  143.6537  162.4009 C.ar    1  UNL1        0.2148
      4 N         142.5473  144.7735  161.4028 N.pl3   1  UNL1       -0.3274
      5 N         143.6704  142.6522  162.3973 N.ar    1  UNL1       -0.2139
      6 C         143.6769  141.5324  163.3954 C.ar    1  UNL1        0.0868
      7 C         144.7936  140.5310  163.3918 C.ar    1  UNL1        0.0190
      8 C         144.8000  139.4113  164.3898 C.ar    1  UNL1       -0.0027
      9 C         143.6898  139.2930  165.3915 C.ar    1  UNL1       -0.0217
     10 C         143.6963  138.1732  166.3896 C.3     1  UNL1        0.0310
     11 C         142.5731  140.2944  165.3951 C.ar    1  UNL1        0.0000
     12 C         142.5667  141.4142  164.3971 C.ar    1  UNL1        0.0489
     13 H         141.8143  145.4307  161.4052 H       1  UNL1        0.1452
     14 H         143.2760  144.8511  160.7454 H       1  UNL1        0.1452
     15 N         140.3397  142.2974  165.4023 N.pl3   1  UNL1       -0.3195
     16 H         140.5152  142.4738  166.3548 H       1  UNL1        0.1481
     17 C         138.9620  141.9104  164.9527 C.3     1  UNL1        0.0729
     18 C         138.5348  140.4732  164.9969 C.3     1  UNL1        0.0196
     19 C         137.9047  138.7028  166.7911 C.3     1  UNL1        0.0001
     20 C         138.9193  139.6120  166.1634 C.3     1  UNL1        0.0017
     21 C         138.0115  142.9605  164.4589 C.3     1  UNL1        0.0512
     22 C         138.1253  144.3701  164.9590 C.3     1  UNL1        0.1389
     23 O         139.3703  145.1626  164.6912 O.3     1  UNL1       -0.3819
     24 H         140.1167  144.7619  165.1637 H       1  UNL1        0.2104
@<TRIPOS>BOND
     1    19    20    1
     2    20    18    1
     3    17    18    1
     4    17    21    1
     5    21    22    1
     6    22    23    1
     7    17    15    1
     8    15     1    1
     9     1     2   ar
    10     2     3   ar
    11     3     4    1
    12     3     5   ar
    13     5     6   ar
    14     6     7   ar
    15     7     8   ar
    16     8     9   ar
    17     9    10    1
    18     9    11   ar
    19    11    12   ar
    20    12     1   ar
    21    12     6   ar
    22    23    24    1
    23    15    16    1
    24     4    13    1
    25     4    14    1
@<TRIPOS>MOLECULE
*****
 24 25 0 0 0
SMALL
GASTEIGER

@<TRIPOS>ATOM
      1 C         139.5002  143.2111  164.5391 C.ar    1  UNL1        0.1327
      2 N         138.6479  142.6866  163.4217 N.ar    1  UNL1       -0.1993
      3 C         138.0723  141.3038  163.5030 C.ar    1  UNL1        0.2148
      4 N         137.2200  140.7794  162.3855 N.pl3   1  UNL1       -0.3274
      5 N         138.3489  140.4455  164.7016 N.ar    1  UNL1       -0.2139
      6 C         139.2012  140.9700  165.8191 C.ar    1  UNL1        0.0868
      7 C         139.4778  140.1117  167.0177 C.ar    1  UNL1        0.0190
      8 C         140.3301  140.6361  168.1351 C.ar    1  UNL1       -0.0027
      9 C         140.9057  142.0189  168.0538 C.ar    1  UNL1       -0.0217
     10 C         141.7580  142.5434  169.1712 C.3     1  UNL1        0.0310
     11 C         140.6291  142.8772  166.8552 C.ar    1  UNL1        0.0000
     12 C         139.7768  142.3527  165.7378 C.ar    1  UNL1        0.0489
     13 H         137.0384  141.3427  161.5988 H       1  UNL1        0.1452
     14 H         136.8422  139.8718  162.4389 H       1  UNL1        0.1452
     15 N         140.0758  144.5938  164.4578 N.pl3   1  UNL1       -0.3195
     16 H         139.6928  145.3192  165.0023 H       1  UNL1        0.1481
     17 C         141.2348  144.8714  163.5471 C.3     1  UNL1        0.0729
     18 C         142.6339  144.8568  164.0879 C.3     1  UNL1        0.0196
     19 C         144.4213  143.4683  165.3636 C.3     1  UNL1        0.0001
     20 C         143.3263  143.5506  164.3417 C.3     1  UNL1        0.0017
     21 C         140.9949  145.1635  162.0955 C.3     1  UNL1        0.0512
     22 C         139.7856  145.9466  161.6779 C.3     1  UNL1        0.1389
     23 O         138.4159  145.4758  162.0677 O.3     1  UNL1       -0.3819
     24 H         138.2251  144.6341  161.6249 H       1  UNL1        0.2104
@<TRIPOS>BOND
     1    19    20    1
     2    20    18    1
     3    17    18    1
     4    17    21    1
     5    21    22    1
     6    22    23    1
     7    17    15    1
     8    15     1    1
     9     1     2   ar
    10     2     3   ar
    11     3     4    1
    12     3     5   ar
    13     5     6   ar
    14     6     7   ar
    15     7     8   ar
    16     8     9   ar
    17     9    10    1
    18     9    11   ar
    19    11    12   ar
    20    12     1   ar
    21    12     6   ar
    22    23    24    1
    23    15    16    1
    24     4    13    1
    25     4    14    1
@<TRIPOS>MOLECULE
*****
 24 25 0 0 0
SMALL
GASTEIGER

@<TRIPOS>ATOM
      1 C         141.6957  144.2211  164.0142 C.ar    1  UNL1        0.1327
      2 N         142.6936  144.4182  162.9117 N.ar    1  UNL1       -0.1993
      3 C         143.8803  143.5073  162.8026 C.ar    1  UNL1        0.2148
      4 N         144.8782  143.7043  161.7001 N.pl3   1  UNL1       -0.3274
      5 N         144.0692  142.3993  163.7960 N.ar    1  UNL1       -0.2139
      6 C         143.0713  142.2022  164.8985 C.ar    1  UNL1        0.0868
      7 C         143.2602  141.0943  165.8918 C.ar    1  UNL1        0.0190
      8 C         142.2623  140.8972  166.9942 C.ar    1  UNL1       -0.0027
      9 C         141.0756  141.8081  167.1033 C.ar    1  UNL1       -0.0217
     10 C         140.0777  141.6110  168.2058 C.3     1  UNL1        0.0310
     11 C         140.8867  142.9161  166.1100 C.ar    1  UNL1        0.0000
     12 C         141.8846  143.1131  165.0076 C.ar    1  UNL1        0.0489
     13 H         144.7542  144.4315  161.0482 H       1  UNL1        0.1452
     14 H         145.6571  143.1065  161.6285 H       1  UNL1        0.1452
     15 N         140.5090  145.1320  164.1233 N.pl3   1  UNL1       -0.3195
     16 H         140.3760  145.6720  164.9357 H       1  UNL1        0.1481
     17 C         139.5249  145.2202  162.9947 C.3     1  UNL1        0.0729
     18 C         138.2869  144.3734  163.0112 C.3     1  UNL1        0.0196
     19 C         137.7603  142.2750  164.4499 C.3     1  UNL1        0.0001
     20 C         137.8105  143.7664  164.2975 C.3     1  UNL1        0.0017
     21 C         139.7788  146.1552  161.8495 C.3     1  UNL1        0.0512
     22 C         140.2836  145.6203  160.5422 C.3     1  UNL1        0.1389
     23 O         141.7559  145.4302  160.3280 O.3     1  UNL1       -0.3819
     24 H         142.1973  146.2939  160.3313 H       1  UNL1        0.2104
@<TRIPOS>BOND
     1    19    20    1
     2    20    18    1
     3    17    18    1
     4    17    21    1
     5    21    22    1
     6    22    23    1
     7    17    15    1
     8    15     1    1
     9     1     2   ar
    10     2     3   ar
    11     3     4    1
    12     3     5   ar
    13     5     6   ar
    14     6     7   ar
    15     7     8   ar
    16     8     9   ar
    17     9    10    1
    18     9    11   ar
    19    11    12   ar
    20    12     1   ar
    21    12     6   ar
    22    23    24    1
    23    15    16    1
    24     4    13    1
    25     4    14    1
