@<TRIPOS>MOLECULE
*****
 31 34 0 0 0
SMALL
GASTEIGER

@<TRIPOS>ATOM
      1 N         139.9782  143.1810  166.2657 N.3     1  UNL1       -0.3219
      2 C         141.0048  142.9795  165.1907 C.3     1  UNL1        0.0563
      3 C         140.7791  143.5498  163.8218 C.3     1  UNL1        0.0318
      4 C         141.8057  143.3484  162.7469 C.3     1  UNL1        0.0595
      5 C         143.0579  142.5768  163.0408 C.3     1  UNL1        0.0164
      6 C         143.2836  142.0065  164.4097 C.3     1  UNL1        0.0071
      7 C         142.2570  142.2079  165.4846 C.3     1  UNL1        0.0389
      8 H         139.1985  143.7233  165.8939 H       1  UNL1        0.1188
      9 H         140.3989  143.6826  167.0479 H       1  UNL1        0.1188
     10 N         141.5800  143.9187  161.3780 N.3     1  UNL1       -0.2651
     11 C         142.4352  143.6761  160.1698 C.3     1  UNL1        0.1022
     12 C         141.8433  144.4392  159.0220 C.ar    1  UNL1        0.0280
     13 C         142.2584  144.5759  157.5871 C.ar    1  UNL1        0.0988
     14 N         141.4524  145.4269  156.6511 N.ar    1  UNL1       -0.2221
     15 C         140.2313  146.1411  157.1499 C.ar    1  UNL1        0.2349
     16 N         139.8162  146.0043  158.5848 N.ar    1  UNL1       -0.2266
     17 C         140.6222  145.1534  159.5208 C.ar    1  UNL1        0.0756
     18 C         140.4595  144.8317  160.9769 C.3     1  UNL1        0.1187
     19 C         139.4253  146.9920  156.2138 C.3     1  UNL1        0.4523
     20 F         138.6193  147.8429  155.2777 F       1  UNL1       -0.1632
     21 F         138.9421  147.8108  157.3740 F       1  UNL1       -0.1632
     22 F         139.9085  146.1733  155.0536 F       1  UNL1       -0.1632
     23 C         142.4827  141.6376  166.8535 C.ar    1  UNL1        0.0086
     24 C         143.1068  142.4824  167.9244 C.ar    1  UNL1        0.0300
     25 C         143.3324  141.9121  169.2933 C.ar    1  UNL1        0.1672
     26 F         143.9565  142.7570  170.3642 F       1  UNL1       -0.2018
     27 C         142.9341  140.4971  169.5913 C.ar    1  UNL1        0.1696
     28 F         143.1597  139.9268  170.9602 F       1  UNL1       -0.2017
     29 C         142.3100  139.6523  168.5204 C.ar    1  UNL1        0.0612
     30 C         142.0843  140.2226  167.1515 C.ar    1  UNL1        0.1385
     31 F         141.4602  139.3777  166.0806 F       1  UNL1       -0.2044
@<TRIPOS>BOND
     1     2     1    1
     2     2     3    1
     3     3     4    1
     4     4    10    1
     5    10    11    1
     6    11    12    1
     7    12    13   ar
     8    13    14   ar
     9    14    15   ar
    10    15    19    1
    11    19    20    1
    12    19    21    1
    13    19    22    1
    14    15    16   ar
    15    16    17   ar
    16    17    18    1
    17     4     5    1
    18     5     6    1
    19     6     7    1
    20     7    23    1
    21    23    24   ar
    22    24    25   ar
    23    25    26    1
    24    25    27   ar
    25    27    28    1
    26    27    29   ar
    27    29    30   ar
    28    30    31    1
    29     7     2    1
    30    30    23   ar
    31    18    10    1
    32    17    12   ar
    33     1     8    1
    34     1     9    1
@<TRIPOS>MOLECULE
*****
 31 34 0 0 0
SMALL
GASTEIGER

@<TRIPOS>ATOM
      1 N         141.8247  142.2400  165.3893 N.3     1  UNL1       -0.3219
      2 C         141.9133  140.8472  164.8395 C.3     1  UNL1        0.0563
      3 C         142.1963  140.6327  163.3822 C.3     1  UNL1        0.0318
      4 C         142.2849  139.2399  162.8324 C.3     1  UNL1        0.0595
      5 C         142.0905  138.0616  163.7400 C.3     1  UNL1        0.0164
      6 C         141.8075  138.2761  165.1973 C.3     1  UNL1        0.0071
      7 C         141.7189  139.6689  165.7471 C.3     1  UNL1        0.0389
      8 H         141.9813  142.9125  164.6385 H       1  UNL1        0.1188
      9 H         142.5334  142.3660  166.1119 H       1  UNL1        0.1188
     10 N         142.5679  139.0255  161.3750 N.3     1  UNL1       -0.2651
     11 C         143.0511  140.0656  160.4083 C.3     1  UNL1        0.1022
     12 C         143.1992  139.4162  159.0643 C.ar    1  UNL1        0.0280
     13 C         143.6402  139.9513  157.7342 C.ar    1  UNL1        0.0988
     14 N         143.6894  139.0448  156.5401 N.ar    1  UNL1       -0.2221
     15 C         143.2977  137.6032  156.6762 C.ar    1  UNL1        0.2349
     16 N         142.8567  137.0682  158.0063 N.ar    1  UNL1       -0.2266
     17 C         142.8075  137.9747  159.2004 C.ar    1  UNL1        0.0756
     18 C         142.4173  137.7332  160.6285 C.3     1  UNL1        0.1187
     19 C         143.3469  136.6967  155.4821 C.3     1  UNL1        0.4523
     20 F         143.3962  135.7903  154.2880 F       1  UNL1       -0.1632
     21 F         141.8647  136.4882  155.5792 F       1  UNL1       -0.1632
     22 F         144.8291  136.9052  155.3849 F       1  UNL1       -0.1632
     23 C         141.4359  139.8833  167.2045 C.ar    1  UNL1        0.0086
     24 C         142.5650  139.9118  168.1915 C.ar    1  UNL1        0.0300
     25 C         142.2820  140.1262  169.6489 C.ar    1  UNL1        0.1672
     26 F         143.4112  140.1547  170.6359 F       1  UNL1       -0.2018
     27 C         140.8699  140.3122  170.1192 C.ar    1  UNL1        0.1696
     28 F         140.5869  140.5267  171.5766 F       1  UNL1       -0.2017
     29 C         139.7408  140.2838  169.1322 C.ar    1  UNL1        0.0612
     30 C         140.0238  140.0693  167.6748 C.ar    1  UNL1        0.1385
     31 F         138.8946  140.0409  166.6878 F       1  UNL1       -0.2044
@<TRIPOS>BOND
     1     2     1    1
     2     2     3    1
     3     3     4    1
     4     4    10    1
     5    10    11    1
     6    11    12    1
     7    12    13   ar
     8    13    14   ar
     9    14    15   ar
    10    15    19    1
    11    19    20    1
    12    19    21    1
    13    19    22    1
    14    15    16   ar
    15    16    17   ar
    16    17    18    1
    17     4     5    1
    18     5     6    1
    19     6     7    1
    20     7    23    1
    21    23    24   ar
    22    24    25   ar
    23    25    26    1
    24    25    27   ar
    25    27    28    1
    26    27    29   ar
    27    29    30   ar
    28    30    31    1
    29     7     2    1
    30    30    23   ar
    31    18    10    1
    32    17    12   ar
    33     1     8    1
    34     1     9    1
@<TRIPOS>MOLECULE
*****
 31 34 0 0 0
SMALL
GASTEIGER

@<TRIPOS>ATOM
      1 N         142.9676  140.8213  165.7121 N.3     1  UNL1       -0.3219
      2 C         141.9831  141.8451  165.2295 C.3     1  UNL1        0.0563
      3 C         142.0389  142.3288  163.8107 C.3     1  UNL1        0.0318
      4 C         141.0545  143.3525  163.3280 C.3     1  UNL1        0.0595
      5 C         140.0144  143.8925  164.2642 C.3     1  UNL1        0.0164
      6 C         139.9586  143.4088  165.6830 C.3     1  UNL1        0.0071
      7 C         140.9430  142.3851  166.1656 C.3     1  UNL1        0.0389
      8 H         143.5964  140.5685  164.9498 H       1  UNL1        0.1188
      9 H         142.4669  139.9913  166.0294 H       1  UNL1        0.1188
     10 N         141.1103  143.8362  161.9093 N.3     1  UNL1       -0.2651
     11 C         142.0974  143.4003  160.8673 C.3     1  UNL1        0.1022
     12 C         141.7860  144.1354  159.5974 C.ar    1  UNL1        0.0280
     13 C         142.4241  144.1092  158.2402 C.ar    1  UNL1        0.0988
     14 N         141.8826  144.9731  157.1401 N.ar    1  UNL1       -0.2221
     15 C         140.7030  145.8633  157.3971 C.ar    1  UNL1        0.2349
     16 N         140.0649  145.8895  158.7544 N.ar    1  UNL1       -0.2266
     17 C         140.6064  145.0256  159.8545 C.ar    1  UNL1        0.0756
     18 C         140.1888  144.8406  161.2833 C.3     1  UNL1        0.1187
     19 C         140.1615  146.7273  156.2969 C.3     1  UNL1        0.4523
     20 F         139.6200  147.5912  155.1968 F       1  UNL1       -0.1632
     21 F         141.1013  146.0783  155.3246 F       1  UNL1       -0.1632
     22 F         139.2216  147.3763  157.2692 F       1  UNL1       -0.1632
     23 C         140.8872  141.9015  167.5844 C.ar    1  UNL1        0.0086
     24 C         141.7539  142.5398  168.6290 C.ar    1  UNL1        0.0300
     25 C         141.6981  142.0561  170.0478 C.ar    1  UNL1        0.1672
     26 F         142.5649  142.6945  171.0924 F       1  UNL1       -0.2018
     27 C         140.7756  140.9341  170.4219 C.ar    1  UNL1        0.1696
     28 F         140.7198  140.4504  171.8407 F       1  UNL1       -0.2017
     29 C         139.9089  140.2958  169.3773 C.ar    1  UNL1        0.0612
     30 C         139.9647  140.7794  167.9585 C.ar    1  UNL1        0.1385
     31 F         139.0979  140.1410  166.9139 F       1  UNL1       -0.2044
@<TRIPOS>BOND
     1     2     1    1
     2     2     3    1
     3     3     4    1
     4     4    10    1
     5    10    11    1
     6    11    12    1
     7    12    13   ar
     8    13    14   ar
     9    14    15   ar
    10    15    19    1
    11    19    20    1
    12    19    21    1
    13    19    22    1
    14    15    16   ar
    15    16    17   ar
    16    17    18    1
    17     4     5    1
    18     5     6    1
    19     6     7    1
    20     7    23    1
    21    23    24   ar
    22    24    25   ar
    23    25    26    1
    24    25    27   ar
    25    27    28    1
    26    27    29   ar
    27    29    30   ar
    28    30    31    1
    29     7     2    1
    30    30    23   ar
    31    18    10    1
    32    17    12   ar
    33     1     8    1
    34     1     9    1
@<TRIPOS>MOLECULE
*****
 31 34 0 0 0
SMALL
GASTEIGER

@<TRIPOS>ATOM
      1 N         142.9098  139.1185  166.8238 N.3     1  UNL1       -0.3219
      2 C         141.9421  139.5710  165.7708 C.3     1  UNL1        0.0563
      3 C         142.0976  139.0974  164.3560 C.3     1  UNL1        0.0318
      4 C         141.1300  139.5499  163.3030 C.3     1  UNL1        0.0595
      5 C         140.0068  140.4759  163.6647 C.3     1  UNL1        0.0164
      6 C         139.8513  140.9495  165.0795 C.3     1  UNL1        0.0071
      7 C         140.8190  140.4971  166.1325 C.3     1  UNL1        0.0389
      8 H         143.6025  138.4979  166.4049 H       1  UNL1        0.1188
      9 H         142.4058  138.6199  167.5571 H       1  UNL1        0.1188
     10 N         141.2854  139.0762  161.8883 N.3     1  UNL1       -0.2651
     11 C         140.2740  139.2288  160.7912 C.3     1  UNL1        0.1022
     12 C         140.8431  138.6138  159.5471 C.ar    1  UNL1        0.0280
     13 C         140.2961  138.4700  158.1578 C.ar    1  UNL1        0.0988
     14 N         141.1124  137.7935  157.0967 N.ar    1  UNL1       -0.2221
     15 C         142.4757  137.2607  157.4249 C.ar    1  UNL1        0.2349
     16 N         143.0226  137.4045  158.8142 N.ar    1  UNL1       -0.2266
     17 C         142.2064  138.0810  159.8752 C.ar    1  UNL1        0.0756
     18 C         142.4797  138.3668  161.3222 C.3     1  UNL1        0.1187
     19 C         143.2920  136.5841  156.3637 C.3     1  UNL1        0.4523
     20 F         144.1082  135.9076  155.3026 F       1  UNL1       -0.1632
     21 F         143.9687  137.8864  156.0539 F       1  UNL1       -0.1632
     22 F         142.6153  135.2818  156.6736 F       1  UNL1       -0.1632
     23 C         140.6635  140.9707  167.5472 C.ar    1  UNL1        0.0086
     24 C         141.5525  142.0567  168.0766 C.ar    1  UNL1        0.0300
     25 C         141.3970  142.5303  169.4913 C.ar    1  UNL1        0.1672
     26 F         142.2861  143.6164  170.0207 F       1  UNL1       -0.2018
     27 C         140.3525  141.9180  170.3767 C.ar    1  UNL1        0.1696
     28 F         140.1970  142.3916  171.7915 F       1  UNL1       -0.2017
     29 C         139.4635  140.8320  169.8474 C.ar    1  UNL1        0.0612
     30 C         139.6190  140.3584  168.4326 C.ar    1  UNL1        0.1385
     31 F         138.7299  139.2723  167.9033 F       1  UNL1       -0.2044
@<TRIPOS>BOND
     1     2     1    1
     2     2     3    1
     3     3     4    1
     4     4    10    1
     5    10    11    1
     6    11    12    1
     7    12    13   ar
     8    13    14   ar
     9    14    15   ar
    10    15    19    1
    11    19    20    1
    12    19    21    1
    13    19    22    1
    14    15    16   ar
    15    16    17   ar
    16    17    18    1
    17     4     5    1
    18     5     6    1
    19     6     7    1
    20     7    23    1
    21    23    24   ar
    22    24    25   ar
    23    25    26    1
    24    25    27   ar
    25    27    28    1
    26    27    29   ar
    27    29    30   ar
    28    30    31    1
    29     7     2    1
    30    30    23   ar
    31    18    10    1
    32    17    12   ar
    33     1     8    1
    34     1     9    1
@<TRIPOS>MOLECULE
*****
 31 34 0 0 0
SMALL
GASTEIGER

@<TRIPOS>ATOM
      1 N         142.2685  140.1887  164.9488 N.3     1  UNL1       -0.3219
      2 C         141.5528  141.4723  164.6479 C.3     1  UNL1        0.0563
      3 C         141.3337  141.8930  163.2249 C.3     1  UNL1        0.0318
      4 C         140.6181  143.1764  162.9239 C.3     1  UNL1        0.0595
      5 C         140.1216  144.0392  164.0460 C.3     1  UNL1        0.0164
      6 C         140.3407  143.6185  165.4690 C.3     1  UNL1        0.0071
      7 C         141.0563  142.3350  165.7700 C.3     1  UNL1        0.0389
      8 H         142.5333  139.7342  164.0749 H       1  UNL1        0.1188
      9 H         141.6528  139.5726  165.4796 H       1  UNL1        0.1188
     10 N         140.3990  143.5971  161.5009 N.3     1  UNL1       -0.2651
     11 C         139.8054  142.7520  160.4130 C.3     1  UNL1        0.1022
     12 C         139.7745  143.5694  159.1557 C.ar    1  UNL1        0.0280
     13 C         139.2976  143.2585  157.7680 C.ar    1  UNL1        0.0988
     14 N         139.3950  144.2980  156.6910 N.ar    1  UNL1       -0.2221
     15 C         139.9695  145.6484  157.0018 C.ar    1  UNL1        0.2349
     16 N         140.4465  145.9592  158.3895 N.ar    1  UNL1       -0.2266
     17 C         140.3490  144.9197  159.4664 C.ar    1  UNL1        0.0756
     18 C         140.7349  144.9369  160.9158 C.3     1  UNL1        0.1187
     19 C         140.0669  146.6879  155.9247 C.3     1  UNL1        0.4523
     20 F         140.1644  147.7273  154.8477 F       1  UNL1       -0.1632
     21 F         138.9728  147.4739  156.5843 F       1  UNL1       -0.1632
     22 F         141.1610  145.9019  155.2651 F       1  UNL1       -0.1632
     23 C         141.2755  141.9143  167.1930 C.ar    1  UNL1        0.0086
     24 C         140.1603  141.2755  167.9664 C.ar    1  UNL1        0.0300
     25 C         140.3794  140.8548  169.3895 C.ar    1  UNL1        0.1672
     26 F         139.2641  140.2160  170.1629 F       1  UNL1       -0.2018
     27 C         141.7137  141.0729  170.0390 C.ar    1  UNL1        0.1696
     28 F         141.9328  140.6522  171.4621 F       1  UNL1       -0.2017
     29 C         142.8289  141.7118  169.2656 C.ar    1  UNL1        0.0612
     30 C         142.6098  142.1325  167.8426 C.ar    1  UNL1        0.1385
     31 F         143.7250  142.7713  167.0692 F       1  UNL1       -0.2044
@<TRIPOS>BOND
     1     2     1    1
     2     2     3    1
     3     3     4    1
     4     4    10    1
     5    10    11    1
     6    11    12    1
     7    12    13   ar
     8    13    14   ar
     9    14    15   ar
    10    15    19    1
    11    19    20    1
    12    19    21    1
    13    19    22    1
    14    15    16   ar
    15    16    17   ar
    16    17    18    1
    17     4     5    1
    18     5     6    1
    19     6     7    1
    20     7    23    1
    21    23    24   ar
    22    24    25   ar
    23    25    26    1
    24    25    27   ar
    25    27    28    1
    26    27    29   ar
    27    29    30   ar
    28    30    31    1
    29     7     2    1
    30    30    23   ar
    31    18    10    1
    32    17    12   ar
    33     1     8    1
    34     1     9    1
@<TRIPOS>MOLECULE
*****
 31 34 0 0 0
SMALL
GASTEIGER

@<TRIPOS>ATOM
      1 N         139.9824  139.1613  165.7016 N.3     1  UNL1       -0.3219
      2 C         141.2195  139.6029  164.9774 C.3     1  UNL1        0.0563
      3 C         141.4094  139.2486  163.5322 C.3     1  UNL1        0.0318
      4 C         142.6465  139.6903  162.8080 C.3     1  UNL1        0.0595
      5 C         143.6937  140.4862  163.5289 C.3     1  UNL1        0.0164
      6 C         143.5038  140.8405  164.9740 C.3     1  UNL1        0.0071
      7 C         142.2667  140.3989  165.6983 C.3     1  UNL1        0.0389
      8 H         139.3846  138.6354  165.0640 H       1  UNL1        0.1188
      9 H         139.4782  139.9794  166.0434 H       1  UNL1        0.1188
     10 N         142.8363  139.3360  161.3629 N.3     1  UNL1       -0.2651
     11 C         143.2672  140.2738  160.2744 C.3     1  UNL1        0.1022
     12 C         143.3258  139.4990  158.9913 C.ar    1  UNL1        0.0280
     13 C         143.6876  139.9005  157.5920 C.ar    1  UNL1        0.0988
     14 N         143.6547  138.8854  156.4883 N.ar    1  UNL1       -0.2221
     15 C         143.2600  137.4687  156.7838 C.ar    1  UNL1        0.2349
     16 N         142.8982  137.0672  158.1830 N.ar    1  UNL1       -0.2266
     17 C         142.9311  138.0824  159.2867 C.ar    1  UNL1        0.0756
     18 C         142.6286  137.9816  160.7525 C.3     1  UNL1        0.1187
     19 C         143.2271  136.4535  155.6799 C.3     1  UNL1        0.4523
     20 F         143.1941  135.4384  154.5761 F       1  UNL1       -0.1632
     21 F         144.6429  136.7964  155.3223 F       1  UNL1       -0.1632
     22 F         141.8113  136.1107  156.0375 F       1  UNL1       -0.1632
     23 C         142.0769  140.7532  167.1434 C.ar    1  UNL1        0.0086
     24 C         141.4290  142.0531  167.5181 C.ar    1  UNL1        0.0300
     25 C         141.2392  142.4074  168.9632 C.ar    1  UNL1        0.1672
     26 F         140.5912  143.7074  169.3378 F       1  UNL1       -0.2018
     27 C         141.6972  141.4618  170.0337 C.ar    1  UNL1        0.1696
     28 F         141.5073  141.8161  171.4788 F       1  UNL1       -0.2017
     29 C         142.3450  140.1619  169.6590 C.ar    1  UNL1        0.0612
     30 C         142.5349  139.8076  168.2139 C.ar    1  UNL1        0.1385
     31 F         143.1828  138.5076  167.8393 F       1  UNL1       -0.2044
@<TRIPOS>BOND
     1     2     1    1
     2     2     3    1
     3     3     4    1
     4     4    10    1
     5    10    11    1
     6    11    12    1
     7    12    13   ar
     8    13    14   ar
     9    14    15   ar
    10    15    19    1
    11    19    20    1
    12    19    21    1
    13    19    22    1
    14    15    16   ar
    15    16    17   ar
    16    17    18    1
    17     4     5    1
    18     5     6    1
    19     6     7    1
    20     7    23    1
    21    23    24   ar
    22    24    25   ar
    23    25    26    1
    24    25    27   ar
    25    27    28    1
    26    27    29   ar
    27    29    30   ar
    28    30    31    1
    29     7     2    1
    30    30    23   ar
    31    18    10    1
    32    17    12   ar
    33     1     8    1
    34     1     9    1
@<TRIPOS>MOLECULE
*****
 31 34 0 0 0
SMALL
GASTEIGER

@<TRIPOS>ATOM
      1 N         143.5576  138.3625  166.5403 N.3     1  UNL1       -0.3219
      2 C         142.7004  139.0927  165.5492 C.3     1  UNL1        0.0563
      3 C         142.6526  138.6382  164.1206 C.3     1  UNL1        0.0318
      4 C         141.7956  139.3683  163.1295 C.3     1  UNL1        0.0595
      5 C         140.9863  140.5530  163.5671 C.3     1  UNL1        0.0164
      6 C         141.0342  141.0076  164.9957 C.3     1  UNL1        0.0071
      7 C         141.8912  140.2774  165.9868 C.3     1  UNL1        0.0389
      8 H         144.0337  137.5902  166.0742 H       1  UNL1        0.1188
      9 H         142.9725  137.9973  167.2918 H       1  UNL1        0.1188
     10 N         141.7477  138.9137  161.7008 N.3     1  UNL1       -0.2651
     11 C         140.6079  139.1197  160.7477 C.3     1  UNL1        0.1022
     12 C         140.9870  138.5067  159.4323 C.ar    1  UNL1        0.0280
     13 C         140.2585  138.4054  158.1250 C.ar    1  UNL1        0.0988
     14 N         140.9042  137.7193  156.9578 N.ar    1  UNL1       -0.2221
     15 C         142.2783  137.1345  157.0979 C.ar    1  UNL1        0.2349
     16 N         143.0068  137.2357  158.4052 N.ar    1  UNL1       -0.2266
     17 C         142.3612  137.9218  159.5723 C.ar    1  UNL1        0.0756
     18 C         142.8313  138.1734  160.9744 C.3     1  UNL1        0.1187
     19 C         142.9240  136.4484  155.9306 C.3     1  UNL1        0.4523
     20 F         143.5696  135.7623  154.7634 F       1  UNL1       -0.1632
     21 F         141.8134  135.4404  155.9088 F       1  UNL1       -0.1632
     22 F         144.0345  137.4564  155.9525 F       1  UNL1       -0.1632
     23 C         141.9391  140.7320  167.4155 C.ar    1  UNL1        0.0086
     24 C         141.0965  140.0458  168.4495 C.ar    1  UNL1        0.0300
     25 C         141.1444  140.5004  169.8781 C.ar    1  UNL1        0.1672
     26 F         140.3018  139.8141  170.9122 F       1  UNL1       -0.2018
     27 C         142.0347  141.6412  170.2728 C.ar    1  UNL1        0.1696
     28 F         142.0826  142.0957  171.7015 F       1  UNL1       -0.2017
     29 C         142.8773  142.3274  169.2388 C.ar    1  UNL1        0.0612
     30 C         142.8294  141.8728  167.8101 C.ar    1  UNL1        0.1385
     31 F         143.6720  142.5591  166.7761 F       1  UNL1       -0.2044
@<TRIPOS>BOND
     1     2     1    1
     2     2     3    1
     3     3     4    1
     4     4    10    1
     5    10    11    1
     6    11    12    1
     7    12    13   ar
     8    13    14   ar
     9    14    15   ar
    10    15    19    1
    11    19    20    1
    12    19    21    1
    13    19    22    1
    14    15    16   ar
    15    16    17   ar
    16    17    18    1
    17     4     5    1
    18     5     6    1
    19     6     7    1
    20     7    23    1
    21    23    24   ar
    22    24    25   ar
    23    25    26    1
    24    25    27   ar
    25    27    28    1
    26    27    29   ar
    27    29    30   ar
    28    30    31    1
    29     7     2    1
    30    30    23   ar
    31    18    10    1
    32    17    12   ar
    33     1     8    1
    34     1     9    1
@<TRIPOS>MOLECULE
*****
 31 34 0 0 0
SMALL
GASTEIGER

@<TRIPOS>ATOM
      1 N         141.9887  139.5846  165.5421 N.3     1  UNL1       -0.3219
      2 C         140.7479  140.0722  164.8545 C.3     1  UNL1        0.0563
      3 C         140.5674  139.8450  163.3829 C.3     1  UNL1        0.0318
      4 C         139.3266  140.3325  162.6953 C.3     1  UNL1        0.0595
      5 C         138.2663  141.0472  163.4795 C.3     1  UNL1        0.0164
      6 C         138.4468  141.2744  164.9511 C.3     1  UNL1        0.0071
      7 C         139.6876  140.7868  165.6387 C.3     1  UNL1        0.0389
      8 H         142.5957  139.1255  164.8629 H       1  UNL1        0.1188
      9 H         141.7338  138.9210  166.2735 H       1  UNL1        0.1188
     10 N         139.1461  140.1053  161.2237 N.3     1  UNL1       -0.2651
     11 C         138.3390  140.9600  160.2920 C.3     1  UNL1        0.1022
     12 C         138.4351  140.3665  158.9178 C.ar    1  UNL1        0.0280
     13 C         137.8455  140.7806  157.6022 C.ar    1  UNL1        0.0988
     14 N         138.1225  139.9731  156.3689 N.ar    1  UNL1       -0.2221
     15 C         138.9891  138.7515  156.4512 C.ar    1  UNL1        0.2349
     16 N         139.5787  138.3374  157.7668 N.ar    1  UNL1       -0.2266
     17 C         139.3017  139.1449  159.0001 C.ar    1  UNL1        0.0756
     18 C         139.7411  138.9835  160.4252 C.3     1  UNL1        0.1187
     19 C         139.2661  137.9440  155.2177 C.3     1  UNL1        0.4523
     20 F         139.5431  137.1365  153.9844 F       1  UNL1       -0.1632
     21 F         138.7442  136.7166  155.9041 F       1  UNL1       -0.1632
     22 F         139.7880  139.1713  154.5314 F       1  UNL1       -0.1632
     23 C         139.8681  141.0140  167.1103 C.ar    1  UNL1        0.0086
     24 C         140.6547  142.1952  167.5960 C.ar    1  UNL1        0.0300
     25 C         140.8351  142.4224  169.0677 C.ar    1  UNL1        0.1672
     26 F         141.6218  143.6037  169.5533 F       1  UNL1       -0.2018
     27 C         140.2290  141.4684  170.0537 C.ar    1  UNL1        0.1696
     28 F         140.4095  141.6955  171.5254 F       1  UNL1       -0.2017
     29 C         139.4424  140.2871  169.5681 C.ar    1  UNL1        0.0612
     30 C         139.2619  140.0600  168.0964 C.ar    1  UNL1        0.1385
     31 F         138.4753  138.8786  167.6108 F       1  UNL1       -0.2044
@<TRIPOS>BOND
     1     2     1    1
     2     2     3    1
     3     3     4    1
     4     4    10    1
     5    10    11    1
     6    11    12    1
     7    12    13   ar
     8    13    14   ar
     9    14    15   ar
    10    15    19    1
    11    19    20    1
    12    19    21    1
    13    19    22    1
    14    15    16   ar
    15    16    17   ar
    16    17    18    1
    17     4     5    1
    18     5     6    1
    19     6     7    1
    20     7    23    1
    21    23    24   ar
    22    24    25   ar
    23    25    26    1
    24    25    27   ar
    25    27    28    1
    26    27    29   ar
    27    29    30   ar
    28    30    31    1
    29     7     2    1
    30    30    23   ar
    31    18    10    1
    32    17    12   ar
    33     1     8    1
    34     1     9    1
@<TRIPOS>MOLECULE
*****
 31 34 0 0 0
SMALL
GASTEIGER

@<TRIPOS>ATOM
      1 N         142.2316  145.1236  160.8061 N.3     1  UNL1       -0.3219
      2 C         141.1409  144.1054  160.9605 C.3     1  UNL1        0.0563
      3 C         140.9190  143.4392  162.2860 C.3     1  UNL1        0.0318
      4 C         139.8284  142.4211  162.4405 C.3     1  UNL1        0.0595
      5 C         138.9597  142.0691  161.2695 C.3     1  UNL1        0.0164
      6 C         139.1815  142.7353  159.9440 C.3     1  UNL1        0.0071
      7 C         140.2721  143.7535  159.7895 C.3     1  UNL1        0.0389
      8 H         142.7182  145.2381  161.6951 H       1  UNL1        0.1188
      9 H         141.8262  146.0158  160.5230 H       1  UNL1        0.1188
     10 N         139.6066  141.7548  163.7660 N.3     1  UNL1       -0.2651
     11 C         138.7321  140.5625  164.0182 C.3     1  UNL1        0.1022
     12 C         138.8053  140.2348  165.4801 C.ar    1  UNL1        0.0280
     13 C         138.1533  139.1630  166.3023 C.ar    1  UNL1        0.0988
     14 N         138.4211  139.0809  167.7759 N.ar    1  UNL1       -0.2221
     15 C         139.3410  140.0706  168.4273 C.ar    1  UNL1        0.2349
     16 N         139.9930  141.1425  167.6051 N.ar    1  UNL1       -0.2266
     17 C         139.7252  141.2245  166.1315 C.ar    1  UNL1        0.0756
     18 C         140.2204  142.1640  165.0721 C.3     1  UNL1        0.1187
     19 C         139.6087  139.9885  169.9009 C.3     1  UNL1        0.4523
     20 F         139.8766  139.9064  171.3745 F       1  UNL1       -0.1632
     21 F         138.2765  140.6195  170.1782 F       1  UNL1       -0.1632
     22 F         140.9410  139.3576  169.6236 F       1  UNL1       -0.1632
     23 C         140.4939  144.4197  158.4640 C.ar    1  UNL1        0.0086
     24 C         139.7947  145.7079  158.1457 C.ar    1  UNL1        0.0300
     25 C         140.0165  146.3742  156.8202 C.ar    1  UNL1        0.1672
     26 F         139.3172  147.6625  156.5020 F       1  UNL1       -0.2018
     27 C         140.9376  145.7521  155.8130 C.ar    1  UNL1        0.1696
     28 F         141.1594  146.4183  154.4875 F       1  UNL1       -0.2017
     29 C         141.6369  144.4638  156.1313 C.ar    1  UNL1        0.0612
     30 C         141.4150  143.7976  157.4568 C.ar    1  UNL1        0.1385
     31 F         142.1144  142.5093  157.7750 F       1  UNL1       -0.2044
@<TRIPOS>BOND
     1     2     1    1
     2     2     3    1
     3     3     4    1
     4     4    10    1
     5    10    11    1
     6    11    12    1
     7    12    13   ar
     8    13    14   ar
     9    14    15   ar
    10    15    19    1
    11    19    20    1
    12    19    21    1
    13    19    22    1
    14    15    16   ar
    15    16    17   ar
    16    17    18    1
    17     4     5    1
    18     5     6    1
    19     6     7    1
    20     7    23    1
    21    23    24   ar
    22    24    25   ar
    23    25    26    1
    24    25    27   ar
    25    27    28    1
    26    27    29   ar
    27    29    30   ar
    28    30    31    1
    29     7     2    1
    30    30    23   ar
    31    18    10    1
    32    17    12   ar
    33     1     8    1
    34     1     9    1
