@<TRIPOS>MOLECULE
*****
 36 41 0 0 0
SMALL
GASTEIGER

@<TRIPOS>ATOM
      1 C         143.1261  134.8841  156.9765 C.ar    1  UNL1        0.1640
      2 N         143.1391  135.7533  158.1988 N.ar    1  UNL1       -0.2220
      3 C         142.8215  137.1562  157.7733 C.ar    1  UNL1        0.1344
      4 C         142.6958  138.4354  158.5465 C.ar    1  UNL1        0.1049
      5 C         142.3607  139.7124  157.8343 C.ar    1  UNL1        0.0392
      6 C         142.1514  139.7101  156.3490 C.ar    1  UNL1        0.0751
      7 N         142.2772  138.4309  155.5758 N.ar    1  UNL1       -0.3361
      8 C         142.6122  137.1540  156.2879 C.ar    1  UNL1        0.1615
      9 N         142.8005  135.7497  155.7955 N.ar    1  UNL1       -0.2081
     10 H         142.1398  138.4294  154.6009 H       1  UNL1        0.1675
     11 C         141.5750  128.9198  154.9758 C.3     1  UNL1        0.1305
     12 N         141.6929  130.3837  155.2808 N.ar    1  UNL1       -0.3240
     13 C         140.7724  131.4629  154.7929 C.ar    1  UNL1        0.0760
     14 C         141.2625  132.7716  155.3379 C.ar    1  UNL1        0.0202
     15 C         142.4860  132.5012  156.1626 C.ar    1  UNL1        0.0202
     16 C         143.3921  133.4082  156.9412 C.ar    1  UNL1        0.0373
     17 C         144.5643  132.8394  157.6845 C.ar    1  UNL1        0.0031
     18 C         144.8302  131.3636  157.6492 C.ar    1  UNL1        0.0016
     19 C         143.9240  130.4566  156.8707 C.ar    1  UNL1        0.0172
     20 C         142.7519  131.0254  156.1274 C.ar    1  UNL1        0.0601
     21 N         142.9051  138.4377  160.0318 N.ar    1  UNL1       -0.2252
     22 C         144.0721  139.0398  160.7568 C.ar    1  UNL1        0.1163
     23 C         143.8723  138.8125  162.2259 C.ar    1  UNL1        0.0853
     24 C         142.5819  138.0700  162.4089 C.ar    1  UNL1        0.1363
     25 N         141.9841  137.8384  161.0528 N.ar    1  UNL1       -0.1621
     26 N         144.8002  139.2508  163.3201 N.pl3   1  UNL1       -0.3303
     27 H         145.6488  138.7738  163.4664 H       1  UNL1        0.1469
     28 C         144.4349  140.4160  164.1913 C.3     1  UNL1        0.0884
     29 C         143.3756  140.2636  165.2424 C.3     1  UNL1        0.0530
     30 C         143.0103  141.4288  166.1136 C.3     1  UNL1        0.1440
     31 O         143.7043  142.7464  165.9337 O.3     1  UNL1       -0.3522
     32 C         144.7636  142.8988  164.8825 C.3     1  UNL1        0.1592
     33 C         145.1289  141.7336  164.0114 C.3     1  UNL1        0.0990
     34 N         146.1881  141.8861  162.9603 N.3     1  UNL1       -0.3189
     35 H         146.5498  142.8396  162.9780 H       1  UNL1        0.1189
     36 H         145.7872  141.6914  162.0428 H       1  UNL1        0.1189
@<TRIPOS>BOND
     1    11    12    1
     2    12    13   ar
     3    13    14   ar
     4    14    15   ar
     5    15    16   ar
     6    16     1    1
     7     1     2   ar
     8     2     3   ar
     9     3     4   ar
    10     4    21    1
    11    21    22   ar
    12    22    23   ar
    13    23    26    1
    14    28    26    1
    15    28    29    1
    16    29    30    1
    17    30    31    1
    18    31    32    1
    19    32    33    1
    20    33    34    1
    21    23    24   ar
    22    24    25   ar
    23     4     5   ar
    24     5     6   ar
    25     6     7   ar
    26     7     8   ar
    27     8     9   ar
    28    16    17   ar
    29    17    18   ar
    30    18    19   ar
    31    19    20   ar
    32    20    12   ar
    33    20    15   ar
    34     9     1   ar
    35     8     3    1
    36    25    21   ar
    37    33    28    1
    38    26    27    1
    39    34    35    1
    40    34    36    1
    41     7    10    1
@<TRIPOS>MOLECULE
*****
 36 41 0 0 0
SMALL
GASTEIGER

@<TRIPOS>ATOM
      1 C         142.5043  135.6466  156.3022 C.ar    1  UNL1        0.1640
      2 N         142.6987  136.3379  157.6191 N.ar    1  UNL1       -0.2220
      3 C         142.7917  137.8123  157.3594 C.ar    1  UNL1        0.1344
      4 C         142.9834  138.9830  158.2773 C.ar    1  UNL1        0.1049
      5 C         143.0381  140.3737  157.7177 C.ar    1  UNL1        0.0392
      6 C         142.9011  140.5936  156.2403 C.ar    1  UNL1        0.0751
      7 N         142.7094  139.4229  155.3224 N.ar    1  UNL1       -0.3361
      8 C         142.6547  138.0322  155.8819 C.ar    1  UNL1        0.1615
      9 N         142.4770  136.6937  155.2286 N.ar    1  UNL1       -0.2081
     10 H         142.6194  139.5672  154.3527 H       1  UNL1        0.1675
     11 C         144.4791  129.5786  157.4253 C.3     1  UNL1        0.1305
     12 N         144.2496  131.0588  157.3457 N.ar    1  UNL1       -0.3240
     13 C         145.0586  132.1150  158.0388 C.ar    1  UNL1        0.0760
     14 C         144.4798  133.4516  157.6806 C.ar    1  UNL1        0.0202
     15 C         143.3132  133.2216  156.7662 C.ar    1  UNL1        0.0202
     16 C         142.3620  134.1677  156.0953 C.ar    1  UNL1        0.0373
     17 C         141.2686  133.6350  155.2174 C.ar    1  UNL1        0.0031
     18 C         141.1263  132.1562  155.0105 C.ar    1  UNL1        0.0016
     19 C         142.0775  131.2101  155.6814 C.ar    1  UNL1        0.0172
     20 C         143.1709  131.7428  156.5593 C.ar    1  UNL1        0.0601
     21 N         143.1204  138.7631  159.7547 N.ar    1  UNL1       -0.2252
     22 C         144.1945  139.3306  160.6347 C.ar    1  UNL1        0.1163
     23 C         143.9453  138.8553  162.0354 C.ar    1  UNL1        0.0853
     24 C         142.7172  137.9941  162.0211 C.ar    1  UNL1        0.1363
     25 N         142.2075  137.9372  160.6116 N.ar    1  UNL1       -0.1621
     26 N         144.7780  139.1837  163.2391 N.pl3   1  UNL1       -0.3303
     27 H         145.5756  138.6454  163.4476 H       1  UNL1        0.1469
     28 C         144.3955  140.3320  164.1251 C.3     1  UNL1        0.0884
     29 C         143.3148  140.1602  165.1512 C.3     1  UNL1        0.0530
     30 C         142.9324  141.3085  166.0372 C.3     1  UNL1        0.1440
     31 O         143.6305  142.6287  165.8971 O.3     1  UNL1       -0.3522
     32 C         144.7112  142.8006  164.8711 C.3     1  UNL1        0.1592
     33 C         145.0937  141.6522  163.9851 C.3     1  UNL1        0.0990
     34 N         146.1743  141.8241  162.9591 N.3     1  UNL1       -0.3189
     35 H         146.5360  142.7768  163.0027 H       1  UNL1        0.1189
     36 H         145.7921  141.6477  162.0300 H       1  UNL1        0.1189
@<TRIPOS>BOND
     1    11    12    1
     2    12    13   ar
     3    13    14   ar
     4    14    15   ar
     5    15    16   ar
     6    16     1    1
     7     1     2   ar
     8     2     3   ar
     9     3     4   ar
    10     4    21    1
    11    21    22   ar
    12    22    23   ar
    13    23    26    1
    14    28    26    1
    15    28    29    1
    16    29    30    1
    17    30    31    1
    18    31    32    1
    19    32    33    1
    20    33    34    1
    21    23    24   ar
    22    24    25   ar
    23     4     5   ar
    24     5     6   ar
    25     6     7   ar
    26     7     8   ar
    27     8     9   ar
    28    16    17   ar
    29    17    18   ar
    30    18    19   ar
    31    19    20   ar
    32    20    12   ar
    33    20    15   ar
    34     9     1   ar
    35     8     3    1
    36    25    21   ar
    37    33    28    1
    38    26    27    1
    39    34    35    1
    40    34    36    1
    41     7    10    1
@<TRIPOS>MOLECULE
*****
 36 41 0 0 0
SMALL
GASTEIGER

@<TRIPOS>ATOM
      1 C         143.5860  134.7140  156.5590 C.ar    1  UNL1        0.1640
      2 N         142.9170  135.7048  157.4649 N.ar    1  UNL1       -0.2220
      3 C         143.0103  137.0570  156.8225 C.ar    1  UNL1        0.1344
      4 C         142.5274  138.4095  157.2557 C.ar    1  UNL1        0.1049
      5 C         142.7712  139.6070  156.3857 C.ar    1  UNL1        0.0392
      6 C         143.4978  139.4519  155.0827 C.ar    1  UNL1        0.0751
      7 N         143.9807  138.0994  154.6495 N.ar    1  UNL1       -0.3361
      8 C         143.7369  136.9020  155.5194 C.ar    1  UNL1        0.1615
      9 N         144.0927  135.4539  155.3565 N.ar    1  UNL1       -0.2081
     10 H         144.4576  137.9977  153.7943 H       1  UNL1        0.1675
     11 C         141.6187  128.6171  155.5900 C.3     1  UNL1        0.1305
     12 N         141.8488  130.0989  155.6289 N.ar    1  UNL1       -0.3240
     13 C         141.0498  131.1347  154.8950 C.ar    1  UNL1        0.0760
     14 C         141.6255  132.4809  155.2209 C.ar    1  UNL1        0.0202
     15 C         142.7803  132.2770  156.1563 C.ar    1  UNL1        0.0202
     16 C         143.7240  133.2418  156.8111 C.ar    1  UNL1        0.0373
     17 C         144.8057  132.7343  157.7179 C.ar    1  UNL1        0.0031
     18 C         144.9437  131.2621  157.9700 C.ar    1  UNL1        0.0016
     19 C         144.0000  130.2974  157.3152 C.ar    1  UNL1        0.0172
     20 C         142.9183  130.8048  156.4084 C.ar    1  UNL1        0.0601
     21 N         141.8008  138.5646  158.5587 N.ar    1  UNL1       -0.2252
     22 C         140.3252  138.3981  158.7706 C.ar    1  UNL1        0.1163
     23 C         140.0346  138.6440  160.2215 C.ar    1  UNL1        0.0853
     24 C         141.3306  138.9624  160.9063 C.ar    1  UNL1        0.1363
     25 N         142.4222  138.9133  159.8786 N.ar    1  UNL1       -0.1621
     26 N         138.6849  138.5823  160.8731 N.pl3   1  UNL1       -0.3303
     27 H         137.8884  138.3667  160.3362 H       1  UNL1        0.1469
     28 C         138.5489  138.8491  162.3429 C.3     1  UNL1        0.0884
     29 C         138.9571  137.8017  163.3363 C.3     1  UNL1        0.0530
     30 C         138.8210  138.0685  164.8061 C.3     1  UNL1        0.1440
     31 O         138.2768  139.3826  165.2826 O.3     1  UNL1       -0.3522
     32 C         137.8686  140.4299  164.2893 C.3     1  UNL1        0.1592
     33 C         138.0046  140.1631  162.8195 C.3     1  UNL1        0.0990
     34 N         137.5964  141.2103  161.8262 N.3     1  UNL1       -0.3189
     35 H         137.2521  142.0329  162.3215 H       1  UNL1        0.1189
     36 H         136.8587  140.8410  161.2265 H       1  UNL1        0.1189
@<TRIPOS>BOND
     1    11    12    1
     2    12    13   ar
     3    13    14   ar
     4    14    15   ar
     5    15    16   ar
     6    16     1    1
     7     1     2   ar
     8     2     3   ar
     9     3     4   ar
    10     4    21    1
    11    21    22   ar
    12    22    23   ar
    13    23    26    1
    14    28    26    1
    15    28    29    1
    16    29    30    1
    17    30    31    1
    18    31    32    1
    19    32    33    1
    20    33    34    1
    21    23    24   ar
    22    24    25   ar
    23     4     5   ar
    24     5     6   ar
    25     6     7   ar
    26     7     8   ar
    27     8     9   ar
    28    16    17   ar
    29    17    18   ar
    30    18    19   ar
    31    19    20   ar
    32    20    12   ar
    33    20    15   ar
    34     9     1   ar
    35     8     3    1
    36    25    21   ar
    37    33    28    1
    38    26    27    1
    39    34    35    1
    40    34    36    1
    41     7    10    1
@<TRIPOS>MOLECULE
*****
 36 41 0 0 0
SMALL
GASTEIGER

@<TRIPOS>ATOM
      1 C         133.7541  140.3773  156.0715 C.ar    1  UNL1        0.1640
      2 N         135.0455  140.2497  156.8239 N.ar    1  UNL1       -0.2220
      3 C         136.1463  140.7675  155.9463 C.ar    1  UNL1        0.1344
      4 C         137.6262  140.8892  156.1589 C.ar    1  UNL1        0.1049
      5 C         138.4950  141.4585  155.0767 C.ar    1  UNL1        0.0392
      6 C         137.8840  141.9061  153.7820 C.ar    1  UNL1        0.0751
      7 N         136.4041  141.7844  153.5694 N.ar    1  UNL1       -0.3361
      8 C         135.5353  141.2151  154.6516 C.ar    1  UNL1        0.1615
      9 N         134.0568  140.9740  154.7290 N.ar    1  UNL1       -0.2081
     10 H         136.0031  142.0782  152.7197 H       1  UNL1        0.1675
     11 C         127.3209  141.1444  156.1562 C.3     1  UNL1        0.1305
     12 N         128.8045  141.1943  155.9408 N.ar    1  UNL1       -0.3240
     13 C         129.5327  142.1438  155.0362 C.ar    1  UNL1        0.0760
     14 C         130.9987  141.8398  155.1285 C.ar    1  UNL1        0.0202
     15 C         131.1765  140.7024  156.0902 C.ar    1  UNL1        0.0202
     16 C         132.3980  139.9784  156.5735 C.ar    1  UNL1        0.0373
     17 C         132.2635  138.8555  157.5589 C.ar    1  UNL1        0.0031
     18 C         130.9075  138.4566  158.0609 C.ar    1  UNL1        0.0016
     19 C         129.6860  139.1805  157.5775 C.ar    1  UNL1        0.0172
     20 C         129.8204  140.3034  156.5921 C.ar    1  UNL1        0.0601
     21 N         138.2372  140.4416  157.4536 N.ar    1  UNL1       -0.2252
     22 C         138.2247  141.2048  158.7449 C.ar    1  UNL1        0.1163
     23 C         138.9478  140.3871  159.7736 C.ar    1  UNL1        0.0853
     24 C         139.4072  139.1185  159.1182 C.ar    1  UNL1        0.1363
     25 N         138.9680  139.1522  157.6843 N.ar    1  UNL1       -0.1621
     26 N         139.1721  140.7707  161.2063 N.pl3   1  UNL1       -0.3303
     27 H         139.4425  140.0880  161.8622 H       1  UNL1        0.1469
     28 C         138.9844  142.1944  161.6398 C.3     1  UNL1        0.0884
     29 C         139.9411  143.2522  161.1750 C.3     1  UNL1        0.0530
     30 C         139.7534  144.6759  161.6084 C.3     1  UNL1        0.1440
     31 O         138.6091  145.0418  162.5066 O.3     1  UNL1       -0.3522
     32 C         137.6524  143.9840  162.9713 C.3     1  UNL1        0.1592
     33 C         137.8401  142.5603  162.5379 C.3     1  UNL1        0.0990
     34 N         136.8835  141.5026  163.0026 N.3     1  UNL1       -0.3189
     35 H         136.1737  141.9252  163.6008 H       1  UNL1        0.1189
     36 H         137.3920  140.7917  163.5285 H       1  UNL1        0.1189
@<TRIPOS>BOND
     1    11    12    1
     2    12    13   ar
     3    13    14   ar
     4    14    15   ar
     5    15    16   ar
     6    16     1    1
     7     1     2   ar
     8     2     3   ar
     9     3     4   ar
    10     4    21    1
    11    21    22   ar
    12    22    23   ar
    13    23    26    1
    14    28    26    1
    15    28    29    1
    16    29    30    1
    17    30    31    1
    18    31    32    1
    19    32    33    1
    20    33    34    1
    21    23    24   ar
    22    24    25   ar
    23     4     5   ar
    24     5     6   ar
    25     6     7   ar
    26     7     8   ar
    27     8     9   ar
    28    16    17   ar
    29    17    18   ar
    30    18    19   ar
    31    19    20   ar
    32    20    12   ar
    33    20    15   ar
    34     9     1   ar
    35     8     3    1
    36    25    21   ar
    37    33    28    1
    38    26    27    1
    39    34    35    1
    40    34    36    1
    41     7    10    1
@<TRIPOS>MOLECULE
*****
 36 41 0 0 0
SMALL
GASTEIGER

@<TRIPOS>ATOM
      1 C         142.9379  135.1924  156.0415 C.ar    1  UNL1        0.1640
      2 N         142.1911  136.1807  156.8873 N.ar    1  UNL1       -0.2220
      3 C         142.8561  137.5166  156.7355 C.ar    1  UNL1        0.1344
      4 C         142.5569  138.8603  157.3314 C.ar    1  UNL1        0.1049
      5 C         143.4156  140.0412  156.9876 C.ar    1  UNL1        0.0392
      6 C         144.5734  139.8785  156.0480 C.ar    1  UNL1        0.0751
      7 N         144.8725  138.5349  155.4520 N.ar    1  UNL1       -0.3361
      8 C         144.0139  137.3540  155.7957 C.ar    1  UNL1        0.1615
      9 N         144.0645  135.9175  155.3669 N.ar    1  UNL1       -0.2081
     10 H         145.6324  138.4281  154.8352 H       1  UNL1        0.1675
     11 C         144.1163  128.9840  157.4728 C.3     1  UNL1        0.1305
     12 N         144.0757  130.4760  157.3237 N.ar    1  UNL1       -0.3240
     13 C         144.9985  131.4540  157.9886 C.ar    1  UNL1        0.0760
     14 C         144.5983  132.8344  157.5593 C.ar    1  UNL1        0.0202
     15 C         143.4281  132.7095  156.6291 C.ar    1  UNL1        0.0202
     16 C         142.6149  133.7348  155.8959 C.ar    1  UNL1        0.0373
     17 C         141.4788  133.3025  155.0171 C.ar    1  UNL1        0.0031
     18 C         141.1559  131.8449  154.8715 C.ar    1  UNL1        0.0016
     19 C         141.9691  130.8197  155.6047 C.ar    1  UNL1        0.0172
     20 C         143.1051  131.2520  156.4835 C.ar    1  UNL1        0.0601
     21 N         141.3991  139.0230  158.2711 N.ar    1  UNL1       -0.2252
     22 C         140.9641  138.0359  159.3134 C.ar    1  UNL1        0.1163
     23 C         139.7692  138.6043  160.0199 C.ar    1  UNL1        0.0853
     24 C         139.4658  139.9426  159.4143 C.ar    1  UNL1        0.1363
     25 N         140.4731  140.2014  158.3335 N.ar    1  UNL1       -0.1621
     26 N         139.0109  137.9492  161.1362 N.pl3   1  UNL1       -0.3303
     27 H         138.4115  137.1917  160.9460 H       1  UNL1        0.1469
     28 C         139.1658  138.4484  162.5422 C.3     1  UNL1        0.0884
     29 C         138.2279  139.4903  163.0758 C.3     1  UNL1        0.0530
     30 C         138.3828  139.9894  164.4818 C.3     1  UNL1        0.1440
     31 O         139.4756  139.4467  165.3542 O.3     1  UNL1       -0.3522
     32 C         140.4136  138.4047  164.8206 C.3     1  UNL1        0.1592
     33 C         140.2587  137.9056  163.4146 C.3     1  UNL1        0.0990
     34 N         141.1966  136.8637  162.8810 N.3     1  UNL1       -0.3189
     35 H         141.8710  136.6114  163.6034 H       1  UNL1        0.1189
     36 H         141.6905  137.2346  162.0693 H       1  UNL1        0.1189
@<TRIPOS>BOND
     1    11    12    1
     2    12    13   ar
     3    13    14   ar
     4    14    15   ar
     5    15    16   ar
     6    16     1    1
     7     1     2   ar
     8     2     3   ar
     9     3     4   ar
    10     4    21    1
    11    21    22   ar
    12    22    23   ar
    13    23    26    1
    14    28    26    1
    15    28    29    1
    16    29    30    1
    17    30    31    1
    18    31    32    1
    19    32    33    1
    20    33    34    1
    21    23    24   ar
    22    24    25   ar
    23     4     5   ar
    24     5     6   ar
    25     6     7   ar
    26     7     8   ar
    27     8     9   ar
    28    16    17   ar
    29    17    18   ar
    30    18    19   ar
    31    19    20   ar
    32    20    12   ar
    33    20    15   ar
    34     9     1   ar
    35     8     3    1
    36    25    21   ar
    37    33    28    1
    38    26    27    1
    39    34    35    1
    40    34    36    1
    41     7    10    1
@<TRIPOS>MOLECULE
*****
 36 41 0 0 0
SMALL
GASTEIGER

@<TRIPOS>ATOM
      1 C         142.6884  139.6078  160.7509 C.ar    1  UNL1        0.1640
      2 N         142.1717  140.9549  160.3406 N.ar    1  UNL1       -0.2220
      3 C         142.8354  141.3324  159.0495 C.ar    1  UNL1        0.1344
      4 C         142.7155  142.5465  158.1768 C.ar    1  UNL1        0.1049
      5 C         143.5226  142.6467  156.9163 C.ar    1  UNL1        0.0392
      6 C         144.4494  141.5329  156.5286 C.ar    1  UNL1        0.0751
      7 N         144.5693  140.3188  157.4014 N.ar    1  UNL1       -0.3361
      8 C         143.7623  140.2186  158.6618 C.ar    1  UNL1        0.1615
      9 N         143.6714  139.1527  159.7133 N.ar    1  UNL1       -0.2081
     10 H         145.1776  139.5878  157.1469 H       1  UNL1        0.1675
     11 C         143.7396  137.9163  166.9165 C.3     1  UNL1        0.1305
     12 N         143.7473  138.4691  165.5221 N.ar    1  UNL1       -0.3240
     13 C         144.7712  139.4042  164.9500 C.ar    1  UNL1        0.0760
     14 C         144.3892  139.6969  163.5294 C.ar    1  UNL1        0.0202
     15 C         143.1291  138.9427  163.2234 C.ar    1  UNL1        0.0202
     16 C         142.2917  138.8489  161.9825 C.ar    1  UNL1        0.0373
     17 C         141.0577  137.9963  161.9731 C.ar    1  UNL1        0.0031
     18 C         140.6610  137.2375  163.2047 C.ar    1  UNL1        0.0016
     19 C         141.4984  137.3313  164.4457 C.ar    1  UNL1        0.0172
     20 C         142.7325  138.1839  164.4550 C.ar    1  UNL1        0.0601
     21 N         141.7887  143.6603  158.5645 N.ar    1  UNL1       -0.2252
     22 C         141.2374  143.9113  159.9368 C.ar    1  UNL1        0.1163
     23 C         140.3584  145.1248  159.8683 C.ar    1  UNL1        0.0853
     24 C         140.3664  145.6238  158.4538 C.ar    1  UNL1        0.1363
     25 N         141.2504  144.7186  157.6480 N.ar    1  UNL1       -0.1621
     26 N         139.6038  145.7326  161.0135 N.pl3   1  UNL1       -0.3303
     27 H         139.2609  146.6528  160.9439 H       1  UNL1        0.1469
     28 C         139.3718  144.9383  162.2646 C.3     1  UNL1        0.0884
     29 C         138.1514  144.0751  162.3894 C.3     1  UNL1        0.0530
     30 C         137.9194  143.2808  163.6406 C.3     1  UNL1        0.1440
     31 O         138.9077  143.3496  164.7668 O.3     1  UNL1       -0.3522
     32 C         140.1282  144.2128  164.6419 C.3     1  UNL1        0.1592
     33 C         140.3602  145.0071  163.3908 C.3     1  UNL1        0.0990
     34 N         141.5805  145.8703  163.2660 N.3     1  UNL1       -0.3189
     35 H         142.1371  145.7974  164.1176 H       1  UNL1        0.1189
     36 H         141.2980  146.8404  163.1264 H       1  UNL1        0.1189
@<TRIPOS>BOND
     1    11    12    1
     2    12    13   ar
     3    13    14   ar
     4    14    15   ar
     5    15    16   ar
     6    16     1    1
     7     1     2   ar
     8     2     3   ar
     9     3     4   ar
    10     4    21    1
    11    21    22   ar
    12    22    23   ar
    13    23    26    1
    14    28    26    1
    15    28    29    1
    16    29    30    1
    17    30    31    1
    18    31    32    1
    19    32    33    1
    20    33    34    1
    21    23    24   ar
    22    24    25   ar
    23     4     5   ar
    24     5     6   ar
    25     6     7   ar
    26     7     8   ar
    27     8     9   ar
    28    16    17   ar
    29    17    18   ar
    30    18    19   ar
    31    19    20   ar
    32    20    12   ar
    33    20    15   ar
    34     9     1   ar
    35     8     3    1
    36    25    21   ar
    37    33    28    1
    38    26    27    1
    39    34    35    1
    40    34    36    1
    41     7    10    1
@<TRIPOS>MOLECULE
*****
 36 41 0 0 0
SMALL
GASTEIGER

@<TRIPOS>ATOM
      1 C         139.8167  139.1397  160.7878 C.ar    1  UNL1        0.1640
      2 N         139.9266  140.5559  160.3059 N.ar    1  UNL1       -0.2220
      3 C         139.6741  140.5633  158.8273 C.ar    1  UNL1        0.1344
      4 C         139.6521  141.6731  157.8184 C.ar    1  UNL1        0.1049
      5 C         139.3641  141.3712  156.3775 C.ar    1  UNL1        0.0392
      6 C         139.0981  139.9596  155.9457 C.ar    1  UNL1        0.0751
      7 N         139.1202  138.8498  156.9546 N.ar    1  UNL1       -0.3361
      8 C         139.4082  139.1516  158.3954 C.ar    1  UNL1        0.1615
      9 N         139.4963  138.2718  159.6070 N.ar    1  UNL1       -0.2081
     10 H         138.9457  137.9233  156.6711 H       1  UNL1        0.1675
     11 C         143.5516  138.2731  166.0108 C.3     1  UNL1        0.1305
     12 N         142.9363  138.5878  164.6795 N.ar    1  UNL1       -0.3240
     13 C         143.6379  139.2105  163.5090 C.ar    1  UNL1        0.0760
     14 C         142.6467  139.3425  162.3911 C.ar    1  UNL1        0.0202
     15 C         141.3323  138.8014  162.8707 C.ar    1  UNL1        0.0202
     16 C         139.9957  138.6732  162.2022 C.ar    1  UNL1        0.0373
     17 C         138.8381  138.0786  162.9480 C.ar    1  UNL1        0.0031
     18 C         139.0171  137.6121  164.3623 C.ar    1  UNL1        0.0016
     19 C         140.3538  137.7403  165.0308 C.ar    1  UNL1        0.0172
     20 C         141.5114  138.3350  164.2850 C.ar    1  UNL1        0.0601
     21 N         139.9180  143.0847  158.2503 N.ar    1  UNL1       -0.2252
     22 C         140.0805  143.5584  159.6642 C.ar    1  UNL1        0.1163
     23 C         140.3310  145.0370  159.6317 C.ar    1  UNL1        0.0853
     24 C         140.3234  145.4771  158.1978 C.ar    1  UNL1        0.1363
     25 N         140.0681  144.2705  157.3440 N.ar    1  UNL1       -0.1621
     26 N         140.5506  145.9203  160.8241 N.pl3   1  UNL1       -0.3303
     27 H         140.7342  146.8795  160.6990 H       1  UNL1        0.1469
     28 C         140.4906  145.3423  162.2069 C.3     1  UNL1        0.0884
     29 C         139.1787  145.2621  162.9300 C.3     1  UNL1        0.0530
     30 C         139.1187  144.6841  164.3129 C.3     1  UNL1        0.1440
     31 O         140.3704  144.1863  164.9727 O.3     1  UNL1       -0.3522
     32 C         141.6822  144.2665  164.2496 C.3     1  UNL1        0.1592
     33 C         141.7423  144.8445  162.8667 C.3     1  UNL1        0.0990
     34 N         143.0540  144.9247  162.1438 N.3     1  UNL1       -0.3189
     35 H         143.7924  144.5447  162.7360 H       1  UNL1        0.1189
     36 H         143.2621  145.8987  161.9239 H       1  UNL1        0.1189
@<TRIPOS>BOND
     1    11    12    1
     2    12    13   ar
     3    13    14   ar
     4    14    15   ar
     5    15    16   ar
     6    16     1    1
     7     1     2   ar
     8     2     3   ar
     9     3     4   ar
    10     4    21    1
    11    21    22   ar
    12    22    23   ar
    13    23    26    1
    14    28    26    1
    15    28    29    1
    16    29    30    1
    17    30    31    1
    18    31    32    1
    19    32    33    1
    20    33    34    1
    21    23    24   ar
    22    24    25   ar
    23     4     5   ar
    24     5     6   ar
    25     6     7   ar
    26     7     8   ar
    27     8     9   ar
    28    16    17   ar
    29    17    18   ar
    30    18    19   ar
    31    19    20   ar
    32    20    12   ar
    33    20    15   ar
    34     9     1   ar
    35     8     3    1
    36    25    21   ar
    37    33    28    1
    38    26    27    1
    39    34    35    1
    40    34    36    1
    41     7    10    1
@<TRIPOS>MOLECULE
*****
 36 41 0 0 0
SMALL
GASTEIGER

@<TRIPOS>ATOM
      1 C         142.5746  135.4734  156.2344 C.ar    1  UNL1        0.1640
      2 N         142.7156  136.1516  157.5648 N.ar    1  UNL1       -0.2220
      3 C         142.8565  137.6250  157.3214 C.ar    1  UNL1        0.1344
      4 C         143.0270  138.7851  158.2569 C.ar    1  UNL1        0.1049
      5 C         143.1435  140.1776  157.7114 C.ar    1  UNL1        0.0392
      6 C         143.0897  140.4099  156.2305 C.ar    1  UNL1        0.0751
      7 N         142.9193  139.2498  155.2950 N.ar    1  UNL1       -0.3361
      8 C         142.8027  137.8574  155.8404 C.ar    1  UNL1        0.1615
      9 N         142.6285  136.5276  155.1687 N.ar    1  UNL1       -0.2081
     10 H         142.8839  139.4023  154.3231 H       1  UNL1        0.1675
     11 C         144.4276  129.3594  157.3144 C.3     1  UNL1        0.1305
     12 N         144.2253  130.8442  157.2486 N.ar    1  UNL1       -0.3240
     13 C         145.0438  131.8781  157.9635 C.ar    1  UNL1        0.0760
     14 C         144.4934  133.2287  157.6130 C.ar    1  UNL1        0.0202
     15 C         143.3346  133.0295  156.6814 C.ar    1  UNL1        0.0202
     16 C         142.4089  133.9996  156.0092 C.ar    1  UNL1        0.0373
     17 C         141.3176  133.4961  155.1117 C.ar    1  UNL1        0.0031
     18 C         141.1520  132.0224  154.8866 C.ar    1  UNL1        0.0016
     19 C         142.0776  131.0523  155.5588 C.ar    1  UNL1        0.0172
     20 C         143.1689  131.5558  156.4562 C.ar    1  UNL1        0.0601
     21 N         143.0808  138.5528  159.7378 N.ar    1  UNL1       -0.2252
     22 C         141.9887  137.9591  160.5774 C.ar    1  UNL1        0.1163
     23 C         142.4692  137.9128  161.9976 C.ar    1  UNL1        0.0853
     24 C         143.8582  138.4778  162.0357 C.ar    1  UNL1        0.1363
     25 N         144.2362  138.8733  160.6391 N.ar    1  UNL1       -0.1621
     26 N         141.6963  137.3927  163.1733 N.pl3   1  UNL1       -0.3303
     27 H         141.7604  136.4426  163.4232 H       1  UNL1        0.1469
     28 C         140.8259  138.3203  163.9683 C.3     1  UNL1        0.0884
     29 C         141.4252  139.1666  165.0522 C.3     1  UNL1        0.0530
     30 C         140.5547  140.0942  165.8471 C.3     1  UNL1        0.1440
     31 O         139.0851  140.1755  165.5582 O.3     1  UNL1       -0.3522
     32 C         138.4858  139.3292  164.4743 C.3     1  UNL1        0.1592
     33 C         139.3562  138.4016  163.6794 C.3     1  UNL1        0.0990
     34 N         138.7570  137.5554  162.5956 N.3     1  UNL1       -0.3189
     35 H         137.7550  137.7370  162.5372 H       1  UNL1        0.1189
     36 H         138.9121  136.5700  162.8086 H       1  UNL1        0.1189
@<TRIPOS>BOND
     1    11    12    1
     2    12    13   ar
     3    13    14   ar
     4    14    15   ar
     5    15    16   ar
     6    16     1    1
     7     1     2   ar
     8     2     3   ar
     9     3     4   ar
    10     4    21    1
    11    21    22   ar
    12    22    23   ar
    13    23    26    1
    14    28    26    1
    15    28    29    1
    16    29    30    1
    17    30    31    1
    18    31    32    1
    19    32    33    1
    20    33    34    1
    21    23    24   ar
    22    24    25   ar
    23     4     5   ar
    24     5     6   ar
    25     6     7   ar
    26     7     8   ar
    27     8     9   ar
    28    16    17   ar
    29    17    18   ar
    30    18    19   ar
    31    19    20   ar
    32    20    12   ar
    33    20    15   ar
    34     9     1   ar
    35     8     3    1
    36    25    21   ar
    37    33    28    1
    38    26    27    1
    39    34    35    1
    40    34    36    1
    41     7    10    1
@<TRIPOS>MOLECULE
*****
 36 41 0 0 0
SMALL
GASTEIGER

@<TRIPOS>ATOM
      1 C         138.7495  142.5660  160.9989 C.ar    1  UNL1        0.1640
      2 N         138.9226  143.4590  159.8062 N.ar    1  UNL1       -0.2220
      3 C         138.7023  142.6335  158.5733 C.ar    1  UNL1        0.1344
      4 C         138.7434  142.9783  157.1140 C.ar    1  UNL1        0.1049
      5 C         138.4751  141.9198  156.0855 C.ar    1  UNL1        0.0392
      6 C         138.1659  140.5167  156.5162 C.ar    1  UNL1        0.0751
      7 N         138.1248  140.1720  157.9755 N.ar    1  UNL1       -0.3361
      8 C         138.3930  141.2303  159.0040 C.ar    1  UNL1        0.1615
      9 N         138.4222  141.1886  160.5031 N.ar    1  UNL1       -0.2081
     10 H         137.9218  139.2510  158.2582 H       1  UNL1        0.1675
     11 C         141.8492  142.2995  166.6824 C.3     1  UNL1        0.1305
     12 N         141.3457  142.1716  165.2752 N.ar    1  UNL1       -0.3240
     13 C         141.9602  141.3363  164.1914 C.ar    1  UNL1        0.0760
     14 C         141.1334  141.5049  162.9512 C.ar    1  UNL1        0.0202
     15 C         140.0080  142.4445  163.2686 C.ar    1  UNL1        0.0202
     16 C         138.8806  142.9780  162.4353 C.ar    1  UNL1        0.0373
     17 C         137.8845  143.9236  163.0383 C.ar    1  UNL1        0.0031
     18 C         138.0157  144.3355  164.4746 C.ar    1  UNL1        0.0016
     19 C         139.1430  143.8020  165.3079 C.ar    1  UNL1        0.0172
     20 C         140.1391  142.8564  164.7050 C.ar    1  UNL1        0.0601
     21 N         139.0526  144.3814  156.6833 N.ar    1  UNL1       -0.2252
     22 C         138.2868  145.1824  155.6724 C.ar    1  UNL1        0.1163
     23 C         138.9429  146.5259  155.5522 C.ar    1  UNL1        0.0853
     24 C         140.1143  146.5552  156.4887 C.ar    1  UNL1        0.1363
     25 N         140.1821  145.2298  157.1877 N.ar    1  UNL1       -0.1621
     26 N         138.5046  147.6439  154.6532 N.pl3   1  UNL1       -0.3303
     27 H         137.7487  147.5120  154.0363 H       1  UNL1        0.1469
     28 C         139.2179  148.9628  154.6941 C.3     1  UNL1        0.0884
     29 C         140.3709  149.2209  153.7698 C.3     1  UNL1        0.0530
     30 C         141.0842  150.5398  153.8107 C.3     1  UNL1        0.1440
     31 O         140.6446  151.6006  154.7759 O.3     1  UNL1       -0.3522
     32 C         139.4917  151.3425  155.7001 C.3     1  UNL1        0.1592
     33 C         138.7784  150.0236  155.6592 C.3     1  UNL1        0.0990
     34 N         137.6255  149.7655  156.5834 N.3     1  UNL1       -0.3189
     35 H         137.4656  150.5879  157.1653 H       1  UNL1        0.1189
     36 H         137.8390  148.9647  157.1779 H       1  UNL1        0.1189
@<TRIPOS>BOND
     1    11    12    1
     2    12    13   ar
     3    13    14   ar
     4    14    15   ar
     5    15    16   ar
     6    16     1    1
     7     1     2   ar
     8     2     3   ar
     9     3     4   ar
    10     4    21    1
    11    21    22   ar
    12    22    23   ar
    13    23    26    1
    14    28    26    1
    15    28    29    1
    16    29    30    1
    17    30    31    1
    18    31    32    1
    19    32    33    1
    20    33    34    1
    21    23    24   ar
    22    24    25   ar
    23     4     5   ar
    24     5     6   ar
    25     6     7   ar
    26     7     8   ar
    27     8     9   ar
    28    16    17   ar
    29    17    18   ar
    30    18    19   ar
    31    19    20   ar
    32    20    12   ar
    33    20    15   ar
    34     9     1   ar
    35     8     3    1
    36    25    21   ar
    37    33    28    1
    38    26    27    1
    39    34    35    1
    40    34    36    1
    41     7    10    1
