@<TRIPOS>MOLECULE
*****
 40 45 0 0 0
SMALL
GASTEIGER

@<TRIPOS>ATOM
      1 C         142.3635  139.8079  159.8019 C.3     1  UNL1        0.1834
      2 C         140.9692  140.3580  159.8596 C.3     1  UNL1        0.0386
      3 C         140.3613  141.2588  160.8936 C.3     1  UNL1        0.0301
      4 C         140.9976  141.8320  162.1251 C.ar    1  UNL1       -0.0084
      5 C         142.3989  141.6460  162.6268 C.ar    1  UNL1        0.0502
      6 C         142.8365  142.3164  163.8952 C.ar    1  UNL1        0.0146
      7 C         141.8729  143.1728  164.6620 C.ar    1  UNL1        0.0013
      8 C         140.4715  143.3588  164.1603 C.ar    1  UNL1       -0.0002
      9 C         139.5079  144.2152  164.9270 C.ar    1  UNL1       -0.0000
     10 C         138.1066  144.4012  164.4253 C.ar    1  UNL1       -0.0000
     11 C         137.6690  143.7308  163.1568 C.ar    1  UNL1       -0.0000
     12 C         138.6326  142.8744  162.3901 C.ar    1  UNL1       -0.0003
     13 C         140.0339  142.6884  162.8918 C.ar    1  UNL1       -0.0028
     14 N         143.5100  140.8408  162.0209 N.am    1  UNL1       -0.2492
     15 C         143.4943  140.0228  160.7637 C.2     1  UNL1        0.2520
     16 O         144.6921  139.2631  160.2757 O.2     1  UNL1       -0.2724
     17 C         142.7717  137.0033  157.1498 C.ar    1  UNL1        0.1233
     18 C         142.2586  137.4914  158.4721 C.ar    1  UNL1        0.1180
     19 N         142.6672  138.9264  158.6268 N.ar    1  UNL1       -0.2233
     20 N         143.4328  139.3251  157.4000 N.ar    1  UNL1       -0.0634
     21 N         143.4973  138.1366  156.4873 N.ar    1  UNL1       -0.1287
     22 C         143.1691  133.0912  156.6131 C.ar    1  UNL1        0.1547
     23 C         143.3500  134.4705  157.1743 C.ar    1  UNL1        0.0400
     24 C         142.5908  135.6240  156.5887 C.ar    1  UNL1        0.0241
     25 C         141.6507  135.3983  155.4419 C.ar    1  UNL1        0.0033
     26 C         141.4698  134.0190  154.8807 C.ar    1  UNL1        0.0207
     27 C         142.2291  132.8655  155.4663 C.ar    1  UNL1        0.0994
     28 N         142.0482  131.4863  154.9052 N.ar    1  UNL1       -0.2839
     29 C         143.0662  130.7133  154.1202 C.ar    1  UNL1        0.1826
     30 N         142.4647  129.3871  153.7604 N.ar    1  UNL1       -0.2280
     31 C         141.0750  129.3405  154.3229 C.ar    1  UNL1        0.0786
     32 C         140.1118  128.1972  154.1994 C.3     1  UNL1        0.0538
     33 C         140.8176  130.6378  155.0304 C.ar    1  UNL1        0.0963
     34 C         145.2193  132.1800  157.9234 C.3     1  UNL1        0.2525
     35 O         143.9283  131.9377  157.1988 O.3     1  UNL1       -0.4700
     36 C         144.8086  140.8556  162.7715 C.3     1  UNL1        0.2016
     37 C         145.0244  139.9100  163.9157 C.3     1  UNL1        0.4160
     38 F         145.2403  138.9644  165.0599 F       1  UNL1       -0.1682
     39 F         146.0794  140.8212  164.4697 F       1  UNL1       -0.1682
     40 F         144.0037  138.8905  163.5052 F       1  UNL1       -0.1682
@<TRIPOS>BOND
     1    34    35    1
     2    35    22    1
     3    22    23   ar
     4    23    24   ar
     5    24    17    1
     6    17    18   ar
     7    18    19   ar
     8    19     1    1
     9     1     2    1
    10     2     3    1
    11     3     4    1
    12     4     5   ar
    13     5     6   ar
    14     6     7   ar
    15     7     8   ar
    16     8     9   ar
    17     9    10   ar
    18    10    11   ar
    19    11    12   ar
    20    12    13   ar
    21     5    14    1
    22    14    36    1
    23    36    37    1
    24    37    38    1
    25    37    39    1
    26    37    40    1
    27    14    15   am
    28    15    16    2
    29    19    20   ar
    30    20    21   ar
    31    24    25   ar
    32    25    26   ar
    33    26    27   ar
    34    27    28    1
    35    28    29   ar
    36    29    30   ar
    37    30    31   ar
    38    31    32    1
    39    31    33   ar
    40    27    22   ar
    41    33    28   ar
    42    21    17   ar
    43    15     1    1
    44    13     4   ar
    45    13     8   ar
@<TRIPOS>MOLECULE
*****
 40 45 0 0 0
SMALL
GASTEIGER

@<TRIPOS>ATOM
      1 C         141.0897  140.8848  163.3413 C.3     1  UNL1        0.1834
      2 C         140.0919  140.3605  164.3310 C.3     1  UNL1        0.0386
      3 C         140.1219  140.4534  165.8278 C.3     1  UNL1        0.0301
      4 C         141.1570  141.0935  166.7046 C.ar    1  UNL1       -0.0084
      5 C         142.4178  141.7988  166.3011 C.ar    1  UNL1        0.0502
      6 C         143.3241  142.3733  167.3493 C.ar    1  UNL1        0.0146
      7 C         142.9695  142.2426  168.8008 C.ar    1  UNL1        0.0013
      8 C         141.7087  141.5372  169.2044 C.ar    1  UNL1       -0.0002
      9 C         141.3541  141.4065  170.6560 C.ar    1  UNL1       -0.0000
     10 C         140.0933  140.7012  171.0594 C.ar    1  UNL1       -0.0000
     11 C         139.1870  140.1266  170.0113 C.ar    1  UNL1       -0.0000
     12 C         139.5416  140.2574  168.5597 C.ar    1  UNL1       -0.0003
     13 C         140.8024  140.9627  168.1562 C.ar    1  UNL1       -0.0028
     14 N         142.9549  142.0382  164.9212 N.am    1  UNL1       -0.2492
     15 C         142.3639  141.6315  163.6039 C.2     1  UNL1        0.2520
     16 O         143.0190  141.9422  162.2908 O.2     1  UNL1       -0.2724
     17 C         140.6739  139.5961  159.7037 C.ar    1  UNL1        0.1233
     18 C         141.2197  139.4453  161.0927 C.ar    1  UNL1        0.1180
     19 N         140.7712  140.6286  161.8980 N.ar    1  UNL1       -0.2233
     20 N         139.9481  141.5107  161.0067 N.ar    1  UNL1       -0.0634
     21 N         139.8880  140.8726  159.6506 N.ar    1  UNL1       -0.1287
     22 C         139.9129  137.2423  156.6004 C.ar    1  UNL1        0.1547
     23 C         139.7087  138.1999  157.7367 C.ar    1  UNL1        0.0400
     24 C         140.8782  138.6385  158.5673 C.ar    1  UNL1        0.0241
     25 C         142.2518  138.1195  158.2617 C.ar    1  UNL1        0.0033
     26 C         142.4561  137.1619  157.1253 C.ar    1  UNL1        0.0207
     27 C         141.2866  136.7233  156.2947 C.ar    1  UNL1        0.0994
     28 N         141.4909  135.7657  155.1583 N.ar    1  UNL1       -0.2839
     29 C         141.7204  136.1366  153.7232 C.ar    1  UNL1        0.1826
     30 N         141.8728  134.8692  152.9355 N.ar    1  UNL1       -0.2280
     31 C         141.7375  133.7150  153.8839 C.ar    1  UNL1        0.0786
     32 C         141.8231  132.2618  153.5219 C.3     1  UNL1        0.0538
     33 C         141.5014  134.2690  155.2576 C.ar    1  UNL1        0.0963
     34 C         138.2795  137.6501  154.6215 C.3     1  UNL1        0.2525
     35 O         138.7434  136.8037  155.7698 O.3     1  UNL1       -0.4700
     36 C         144.2550  142.7828  164.8489 C.3     1  UNL1        0.2016
     37 C         144.2669  144.2808  164.9278 C.3     1  UNL1        0.4160
     38 F         144.2788  145.7786  165.0066 F       1  UNL1       -0.1682
     39 F         145.3485  144.2176  165.9652 F       1  UNL1       -0.1682
     40 F         143.1948  144.5259  163.9078 F       1  UNL1       -0.1682
@<TRIPOS>BOND
     1    34    35    1
     2    35    22    1
     3    22    23   ar
     4    23    24   ar
     5    24    17    1
     6    17    18   ar
     7    18    19   ar
     8    19     1    1
     9     1     2    1
    10     2     3    1
    11     3     4    1
    12     4     5   ar
    13     5     6   ar
    14     6     7   ar
    15     7     8   ar
    16     8     9   ar
    17     9    10   ar
    18    10    11   ar
    19    11    12   ar
    20    12    13   ar
    21     5    14    1
    22    14    36    1
    23    36    37    1
    24    37    38    1
    25    37    39    1
    26    37    40    1
    27    14    15   am
    28    15    16    2
    29    19    20   ar
    30    20    21   ar
    31    24    25   ar
    32    25    26   ar
    33    26    27   ar
    34    27    28    1
    35    28    29   ar
    36    29    30   ar
    37    30    31   ar
    38    31    32    1
    39    31    33   ar
    40    27    22   ar
    41    33    28   ar
    42    21    17   ar
    43    15     1    1
    44    13     4   ar
    45    13     8   ar
@<TRIPOS>MOLECULE
*****
 40 45 0 0 0
SMALL
GASTEIGER

@<TRIPOS>ATOM
      1 C         142.3268  140.0576  162.3697 C.3     1  UNL1        0.1834
      2 C         142.8044  139.2330  163.5280 C.3     1  UNL1        0.0386
      3 C         142.5874  139.4653  164.9940 C.3     1  UNL1        0.0301
      4 C         141.8391  140.5796  165.6635 C.ar    1  UNL1       -0.0084
      5 C         141.1230  141.7368  165.0326 C.ar    1  UNL1        0.0502
      6 C         140.4307  142.7505  165.8946 C.ar    1  UNL1        0.0146
      7 C         140.4544  142.6071  167.3875 C.ar    1  UNL1        0.0013
      8 C         141.1704  141.4498  168.0185 C.ar    1  UNL1       -0.0002
      9 C         141.1941  141.3063  169.5114 C.ar    1  UNL1       -0.0000
     10 C         141.9102  140.1491  170.1423 C.ar    1  UNL1       -0.0000
     11 C         142.6026  139.1354  169.2803 C.ar    1  UNL1       -0.0000
     12 C         142.5789  139.2789  167.7874 C.ar    1  UNL1       -0.0003
     13 C         141.8628  140.4361  167.1565 C.ar    1  UNL1       -0.0028
     14 N         140.9784  142.0655  163.5762 N.am    1  UNL1       -0.2492
     15 C         141.5141  141.3182  162.3910 C.2     1  UNL1        0.2520
     16 O         141.2886  141.7694  160.9785 O.2     1  UNL1       -0.2724
     17 C         142.7826  138.2480  158.9662 C.ar    1  UNL1        0.1233
     18 C         142.0913  138.3958  160.2892 C.ar    1  UNL1        0.1180
     19 N         142.7129  139.5552  161.0100 N.ar    1  UNL1       -0.2233
     20 N         143.7883  140.1239  160.1325 N.ar    1  UNL1       -0.0634
     21 N         143.8314  139.3160  158.8694 N.ar    1  UNL1       -0.1287
     22 C         143.0233  134.9474  156.7758 C.ar    1  UNL1        0.1547
     23 C         143.3275  135.9816  157.8189 C.ar    1  UNL1        0.0400
     24 C         142.4785  137.2138  157.9232 C.ar    1  UNL1        0.0241
     25 C         141.3254  137.4118  156.9846 C.ar    1  UNL1        0.0033
     26 C         141.0213  136.3776  155.9416 C.ar    1  UNL1        0.0207
     27 C         141.8703  135.1454  155.8372 C.ar    1  UNL1        0.0994
     28 N         141.5661  134.1112  154.7942 N.ar    1  UNL1       -0.2839
     29 C         141.7046  134.2874  153.3110 C.ar    1  UNL1        0.1826
     30 N         141.2942  133.0043  152.6514 N.ar    1  UNL1       -0.2280
     31 C         140.9021  132.0350  153.7269 C.ar    1  UNL1        0.0786
     32 C         140.4255  130.6286  153.5151 C.3     1  UNL1        0.0538
     33 C         141.0701  132.7191  155.0512 C.ar    1  UNL1        0.0963
     34 C         144.5306  133.1520  157.8961 C.3     1  UNL1        0.2525
     35 O         143.8723  133.7152  156.6715 O.3     1  UNL1       -0.4700
     36 C         140.1944  143.3055  163.2636 C.3     1  UNL1        0.2016
     37 C         138.8560  143.1980  162.5948 C.3     1  UNL1        0.4160
     38 F         137.5177  143.0905  161.9261 F       1  UNL1       -0.1682
     39 F         139.3007  144.1758  161.5478 F       1  UNL1       -0.1682
     40 F         138.2517  142.2145  163.5526 F       1  UNL1       -0.1682
@<TRIPOS>BOND
     1    34    35    1
     2    35    22    1
     3    22    23   ar
     4    23    24   ar
     5    24    17    1
     6    17    18   ar
     7    18    19   ar
     8    19     1    1
     9     1     2    1
    10     2     3    1
    11     3     4    1
    12     4     5   ar
    13     5     6   ar
    14     6     7   ar
    15     7     8   ar
    16     8     9   ar
    17     9    10   ar
    18    10    11   ar
    19    11    12   ar
    20    12    13   ar
    21     5    14    1
    22    14    36    1
    23    36    37    1
    24    37    38    1
    25    37    39    1
    26    37    40    1
    27    14    15   am
    28    15    16    2
    29    19    20   ar
    30    20    21   ar
    31    24    25   ar
    32    25    26   ar
    33    26    27   ar
    34    27    28    1
    35    28    29   ar
    36    29    30   ar
    37    30    31   ar
    38    31    32    1
    39    31    33   ar
    40    27    22   ar
    41    33    28   ar
    42    21    17   ar
    43    15     1    1
    44    13     4   ar
    45    13     8   ar
@<TRIPOS>MOLECULE
*****
 40 45 0 0 0
SMALL
GASTEIGER

@<TRIPOS>ATOM
      1 C         140.1052  142.1684  163.4404 C.3     1  UNL1        0.1834
      2 C         139.2715  141.5468  164.5215 C.3     1  UNL1        0.0386
      3 C         139.6195  141.3336  165.9650 C.3     1  UNL1        0.0301
      4 C         140.8871  141.6893  166.6837 C.ar    1  UNL1       -0.0084
      5 C         142.1197  142.3461  166.1367 C.ar    1  UNL1        0.0502
      6 C         143.2888  142.6149  167.0372 C.ar    1  UNL1        0.0146
      7 C         143.2253  142.2270  168.4848 C.ar    1  UNL1        0.0013
      8 C         141.9926  141.5702  169.0319 C.ar    1  UNL1       -0.0002
      9 C         141.9291  141.1822  170.4794 C.ar    1  UNL1       -0.0000
     10 C         140.6965  140.5255  171.0264 C.ar    1  UNL1       -0.0000
     11 C         139.5274  140.2566  170.1259 C.ar    1  UNL1       -0.0000
     12 C         139.5909  140.6446  168.6784 C.ar    1  UNL1       -0.0003
     13 C         140.8235  141.3013  168.1313 C.ar    1  UNL1       -0.0028
     14 N         142.3892  142.8093  164.7357 N.am    1  UNL1       -0.2492
     15 C         141.4926  142.7303  163.5357 C.2     1  UNL1        0.2520
     16 O         141.8996  143.2391  162.1847 O.2     1  UNL1       -0.2724
     17 C         138.8224  141.7014  159.8070 C.ar    1  UNL1        0.1233
     18 C         139.6382  141.2394  160.9778 C.ar    1  UNL1        0.1180
     19 N         139.4668  142.2371  162.0847 N.ar    1  UNL1       -0.2233
     20 N         138.5450  143.3157  161.5979 N.ar    1  UNL1       -0.0634
     21 N         138.1467  142.9845  160.1902 N.ar    1  UNL1       -0.1287
     22 C         139.2976  139.0049  156.9341 C.ar    1  UNL1        0.1547
     23 C         139.4169  139.7035  158.2561 C.ar    1  UNL1        0.0400
     24 C         138.7031  141.0028  158.4849 C.ar    1  UNL1        0.0241
     25 C         137.8700  141.6035  157.3918 C.ar    1  UNL1        0.0033
     26 C         137.7508  140.9049  156.0697 C.ar    1  UNL1        0.0207
     27 C         138.4645  139.6056  155.8410 C.ar    1  UNL1        0.0994
     28 N         138.3453  138.9070  154.5189 N.ar    1  UNL1       -0.2839
     29 C         139.1742  139.1807  153.2991 C.ar    1  UNL1        0.1826
     30 N         138.7174  138.2549  152.2109 N.ar    1  UNL1       -0.2280
     31 C         137.6061  137.4090  152.7582 C.ar    1  UNL1        0.0786
     32 C         136.8565  136.3466  152.0102 C.3     1  UNL1        0.0538
     33 C         137.3762  137.8120  154.1846 C.ar    1  UNL1        0.0963
     34 C         141.4300  137.5384  157.1634 C.3     1  UNL1        0.2525
     35 O         140.0114  137.7056  156.7053 O.3     1  UNL1       -0.4700
     36 C         143.7329  143.4343  164.5040 C.3     1  UNL1        0.2016
     37 C         144.7622  142.7168  163.6820 C.3     1  UNL1        0.4160
     38 F         145.7915  141.9993  162.8600 F       1  UNL1       -0.1682
     39 F         144.8248  143.8839  162.7416 F       1  UNL1       -0.1682
     40 F         144.8255  141.4711  164.5151 F       1  UNL1       -0.1682
@<TRIPOS>BOND
     1    34    35    1
     2    35    22    1
     3    22    23   ar
     4    23    24   ar
     5    24    17    1
     6    17    18   ar
     7    18    19   ar
     8    19     1    1
     9     1     2    1
    10     2     3    1
    11     3     4    1
    12     4     5   ar
    13     5     6   ar
    14     6     7   ar
    15     7     8   ar
    16     8     9   ar
    17     9    10   ar
    18    10    11   ar
    19    11    12   ar
    20    12    13   ar
    21     5    14    1
    22    14    36    1
    23    36    37    1
    24    37    38    1
    25    37    39    1
    26    37    40    1
    27    14    15   am
    28    15    16    2
    29    19    20   ar
    30    20    21   ar
    31    24    25   ar
    32    25    26   ar
    33    26    27   ar
    34    27    28    1
    35    28    29   ar
    36    29    30   ar
    37    30    31   ar
    38    31    32    1
    39    31    33   ar
    40    27    22   ar
    41    33    28   ar
    42    21    17   ar
    43    15     1    1
    44    13     4   ar
    45    13     8   ar
@<TRIPOS>MOLECULE
*****
 40 45 0 0 0
SMALL
GASTEIGER

@<TRIPOS>ATOM
      1 C         142.2845  139.6144  159.8644 C.3     1  UNL1        0.1834
      2 C         141.0444  140.4495  159.7427 C.3     1  UNL1        0.0386
      3 C         140.3734  141.2859  160.7916 C.3     1  UNL1        0.0301
      4 C         140.7768  141.4938  162.2213 C.ar    1  UNL1       -0.0084
      5 C         141.9508  140.9167  162.9552 C.ar    1  UNL1        0.0502
      6 C         142.1738  141.2571  164.3989 C.ar    1  UNL1        0.0146
      7 C         141.2228  142.1745  165.1088 C.ar    1  UNL1        0.0013
      8 C         140.0488  142.7517  164.3748 C.ar    1  UNL1       -0.0002
      9 C         139.0978  143.6691  165.0847 C.ar    1  UNL1       -0.0000
     10 C         137.9238  144.2462  164.3508 C.ar    1  UNL1       -0.0000
     11 C         137.7008  143.9059  162.9070 C.ar    1  UNL1       -0.0000
     12 C         138.6518  142.9884  162.1972 C.ar    1  UNL1       -0.0003
     13 C         139.8257  142.4113  162.9311 C.ar    1  UNL1       -0.0028
     14 N         143.0113  139.9891  162.4406 N.am    1  UNL1       -0.2492
     15 C         143.1599  139.4095  161.0651 C.2     1  UNL1        0.2520
     16 O         144.2818  138.4869  160.6909 O.2     1  UNL1       -0.2724
     17 C         142.9099  137.1942  156.8951 C.ar    1  UNL1        0.1233
     18 C         142.2373  137.5286  158.1934 C.ar    1  UNL1        0.1180
     19 N         142.7048  138.8882  158.6210 N.ar    1  UNL1       -0.2233
     20 N         143.6663  139.3942  157.5869 N.ar    1  UNL1       -0.0634
     21 N         143.7931  138.3472  156.5202 N.ar    1  UNL1       -0.1287
     22 C         142.2136  134.7289  153.8639 C.ar    1  UNL1        0.1547
     23 C         142.3927  135.9942  154.6495 C.ar    1  UNL1        0.0400
     24 C         142.7308  135.9290  156.1095 C.ar    1  UNL1        0.0241
     25 C         142.8898  134.5987  156.7838 C.ar    1  UNL1        0.0033
     26 C         142.7107  133.3334  155.9982 C.ar    1  UNL1        0.0207
     27 C         142.3726  133.3986  154.5383 C.ar    1  UNL1        0.0994
     28 N         142.1935  132.1334  153.7527 N.ar    1  UNL1       -0.2839
     29 C         143.2824  131.3526  153.0785 C.ar    1  UNL1        0.1826
     30 N         142.6559  130.1635  152.4125 N.ar    1  UNL1       -0.2280
     31 C         141.1798  130.2094  152.6752 C.ar    1  UNL1        0.0786
     32 C         140.1673  129.2127  152.1939 C.3     1  UNL1        0.0538
     33 C         140.8940  131.4268  153.5034 C.ar    1  UNL1        0.0963
     34 C         140.4408  134.8189  151.9668 C.3     1  UNL1        0.2525
     35 O         141.8755  134.7941  152.4040 O.3     1  UNL1       -0.4700
     36 C         144.0624  139.5881  163.4328 C.3     1  UNL1        0.2016
     37 C         145.2470  140.4769  163.6712 C.3     1  UNL1        0.4160
     38 F         146.4315  141.3656  163.9095 F       1  UNL1       -0.1682
     39 F         145.6558  139.6204  164.8328 F       1  UNL1       -0.1682
     40 F         144.9855  141.4352  162.5473 F       1  UNL1       -0.1682
@<TRIPOS>BOND
     1    34    35    1
     2    35    22    1
     3    22    23   ar
     4    23    24   ar
     5    24    17    1
     6    17    18   ar
     7    18    19   ar
     8    19     1    1
     9     1     2    1
    10     2     3    1
    11     3     4    1
    12     4     5   ar
    13     5     6   ar
    14     6     7   ar
    15     7     8   ar
    16     8     9   ar
    17     9    10   ar
    18    10    11   ar
    19    11    12   ar
    20    12    13   ar
    21     5    14    1
    22    14    36    1
    23    36    37    1
    24    37    38    1
    25    37    39    1
    26    37    40    1
    27    14    15   am
    28    15    16    2
    29    19    20   ar
    30    20    21   ar
    31    24    25   ar
    32    25    26   ar
    33    26    27   ar
    34    27    28    1
    35    28    29   ar
    36    29    30   ar
    37    30    31   ar
    38    31    32    1
    39    31    33   ar
    40    27    22   ar
    41    33    28   ar
    42    21    17   ar
    43    15     1    1
    44    13     4   ar
    45    13     8   ar
@<TRIPOS>MOLECULE
*****
 40 45 0 0 0
SMALL
GASTEIGER

@<TRIPOS>ATOM
      1 C         142.5869  137.0151  157.6415 C.3     1  UNL1        0.1834
      2 C         143.3064  135.6990  157.6546 C.3     1  UNL1        0.0386
      3 C         143.2754  134.6059  156.6278 C.3     1  UNL1        0.0301
      4 C         142.5174  134.5590  155.3344 C.ar    1  UNL1       -0.0084
      5 C         141.6031  135.5936  154.7482 C.ar    1  UNL1        0.0502
      6 C         140.9377  135.3444  153.4271 C.ar    1  UNL1        0.0146
      7 C         141.1867  134.0607  152.6922 C.ar    1  UNL1        0.0013
      8 C         142.1010  133.0260  153.2785 C.ar    1  UNL1       -0.0002
      9 C         142.3499  131.7423  152.5436 C.ar    1  UNL1       -0.0000
     10 C         143.2642  130.7078  153.1298 C.ar    1  UNL1       -0.0000
     11 C         143.9296  130.9569  154.4509 C.ar    1  UNL1       -0.0000
     12 C         143.6806  132.2406  155.1857 C.ar    1  UNL1       -0.0003
     13 C         142.7664  133.2752  154.5995 C.ar    1  UNL1       -0.0028
     14 N         141.2210  136.9306  155.3107 N.am    1  UNL1       -0.2492
     15 C         141.6589  137.5633  156.5984 C.2     1  UNL1        0.2520
     16 O         141.1906  138.9195  157.0357 O.2     1  UNL1       -0.2724
     17 C         142.7450  138.8300  161.0688 C.ar    1  UNL1        0.1233
     18 C         142.2368  137.7213  160.1957 C.ar    1  UNL1        0.1180
     19 N         142.8274  137.9001  158.8285 N.ar    1  UNL1       -0.2233
     20 N         143.7007  139.1194  158.8567 N.ar    1  UNL1       -0.0634
     21 N         143.6498  139.6940  160.2413 N.ar    1  UNL1       -0.1287
     22 C         142.1676  140.6162  164.5654 C.ar    1  UNL1        0.1547
     23 C         142.5048  140.4081  163.1187 C.ar    1  UNL1        0.0400
     24 C         142.4078  139.0381  162.5155 C.ar    1  UNL1        0.0241
     25 C         141.9735  137.8763  163.3590 C.ar    1  UNL1        0.0033
     26 C         141.6362  138.0845  164.8057 C.ar    1  UNL1        0.0207
     27 C         141.7333  139.4544  165.4089 C.ar    1  UNL1        0.0994
     28 N         141.3960  139.6625  166.8556 N.ar    1  UNL1       -0.2839
     29 C         142.3524  139.5637  168.0069 C.ar    1  UNL1        0.1826
     30 N         141.5906  139.8461  169.2678 N.ar    1  UNL1       -0.2280
     31 C         140.1634  140.1195  168.8958 C.ar    1  UNL1        0.0786
     32 C         139.0517  140.4485  169.8476 C.3     1  UNL1        0.0538
     33 C         140.0432  140.0060  167.4050 C.ar    1  UNL1        0.0963
     34 C         143.5822  142.4889  165.6799 C.3     1  UNL1        0.2525
     35 O         142.2646  141.9861  165.1686 O.3     1  UNL1       -0.4700
     36 C         140.2762  137.7423  154.4751 C.3     1  UNL1        0.2016
     37 C         138.7960  137.5333  154.5993 C.3     1  UNL1        0.4160
     38 F         137.3159  137.3243  154.7235 F       1  UNL1       -0.1682
     39 F         138.5922  138.1822  153.2623 F       1  UNL1       -0.1682
     40 F         138.8180  136.8638  155.9413 F       1  UNL1       -0.1682
@<TRIPOS>BOND
     1    34    35    1
     2    35    22    1
     3    22    23   ar
     4    23    24   ar
     5    24    17    1
     6    17    18   ar
     7    18    19   ar
     8    19     1    1
     9     1     2    1
    10     2     3    1
    11     3     4    1
    12     4     5   ar
    13     5     6   ar
    14     6     7   ar
    15     7     8   ar
    16     8     9   ar
    17     9    10   ar
    18    10    11   ar
    19    11    12   ar
    20    12    13   ar
    21     5    14    1
    22    14    36    1
    23    36    37    1
    24    37    38    1
    25    37    39    1
    26    37    40    1
    27    14    15   am
    28    15    16    2
    29    19    20   ar
    30    20    21   ar
    31    24    25   ar
    32    25    26   ar
    33    26    27   ar
    34    27    28    1
    35    28    29   ar
    36    29    30   ar
    37    30    31   ar
    38    31    32    1
    39    31    33   ar
    40    27    22   ar
    41    33    28   ar
    42    21    17   ar
    43    15     1    1
    44    13     4   ar
    45    13     8   ar
@<TRIPOS>MOLECULE
*****
 40 45 0 0 0
SMALL
GASTEIGER

@<TRIPOS>ATOM
      1 C         142.7742  139.2432  158.8748 C.3     1  UNL1        0.1834
      2 C         143.8678  139.4138  159.8872 C.3     1  UNL1        0.0386
      3 C         143.9305  140.3657  161.0448 C.3     1  UNL1        0.0301
      4 C         142.9151  141.3821  161.4758 C.ar    1  UNL1       -0.0084
      5 C         141.5862  141.6976  160.8558 C.ar    1  UNL1        0.0502
      6 C         140.7147  142.7633  161.4515 C.ar    1  UNL1        0.0146
      7 C         141.1722  143.5134  162.6672 C.ar    1  UNL1        0.0013
      8 C         142.5011  143.1979  163.2873 C.ar    1  UNL1       -0.0002
      9 C         142.9586  143.9481  164.5030 C.ar    1  UNL1       -0.0000
     10 C         144.2875  143.6326  165.1229 C.ar    1  UNL1       -0.0000
     11 C         145.1589  142.5669  164.5272 C.ar    1  UNL1       -0.0000
     12 C         144.7015  141.8167  163.3116 C.ar    1  UNL1       -0.0003
     13 C         143.3726  142.1323  162.6916 C.ar    1  UNL1       -0.0028
     14 N         140.9445  141.0746  159.6516 N.am    1  UNL1       -0.2492
     15 C         141.4732  139.9823  158.7699 C.2     1  UNL1        0.2520
     16 O         140.7137  139.4544  157.5891 O.2     1  UNL1       -0.2724
     17 C         142.9420  136.1048  156.5970 C.ar    1  UNL1        0.1233
     18 C         142.4432  136.8073  157.8249 C.ar    1  UNL1        0.1180
     19 N         143.0133  138.1947  157.8290 N.ar    1  UNL1       -0.2233
     20 N         143.8644  138.3497  156.6036 N.ar    1  UNL1       -0.0634
     21 N         143.8203  137.0581  155.8422 N.ar    1  UNL1       -0.1287
     22 C         142.7903  132.1391  156.6207 C.ar    1  UNL1        0.1547
     23 C         143.1132  133.5476  157.0231 C.ar    1  UNL1        0.0400
     24 C         142.6192  134.6963  156.1946 C.ar    1  UNL1        0.0241
     25 C         141.8023  134.4366  154.9637 C.ar    1  UNL1        0.0033
     26 C         141.4794  133.0281  154.5613 C.ar    1  UNL1        0.0207
     27 C         141.9734  131.8794  155.3898 C.ar    1  UNL1        0.0994
     28 N         141.6506  130.4709  154.9874 N.ar    1  UNL1       -0.2839
     29 C         142.6393  129.4284  154.5566 C.ar    1  UNL1        0.1826
     30 N         141.8821  128.1708  154.2481 N.ar    1  UNL1       -0.2280
     31 C         140.4254  128.4361  154.4883 C.ar    1  UNL1        0.0786
     32 C         139.3080  127.4525  154.3038 C.3     1  UNL1        0.0538
     33 C         140.2824  129.8576  154.9452 C.ar    1  UNL1        0.0963
     34 C         144.7387  130.8919  157.8033 C.3     1  UNL1        0.2525
     35 O         143.2843  130.9905  157.4493 O.3     1  UNL1       -0.4700
     36 C         139.5957  141.6155  159.2798 C.3     1  UNL1        0.2016
     37 C         138.3718  140.7670  159.4593 C.3     1  UNL1        0.4160
     38 F         137.1480  139.9185  159.6388 F       1  UNL1       -0.1682
     39 F         137.8342  141.2657  158.1508 F       1  UNL1       -0.1682
     40 F         138.7564  140.1686  160.7799 F       1  UNL1       -0.1682
@<TRIPOS>BOND
     1    34    35    1
     2    35    22    1
     3    22    23   ar
     4    23    24   ar
     5    24    17    1
     6    17    18   ar
     7    18    19   ar
     8    19     1    1
     9     1     2    1
    10     2     3    1
    11     3     4    1
    12     4     5   ar
    13     5     6   ar
    14     6     7   ar
    15     7     8   ar
    16     8     9   ar
    17     9    10   ar
    18    10    11   ar
    19    11    12   ar
    20    12    13   ar
    21     5    14    1
    22    14    36    1
    23    36    37    1
    24    37    38    1
    25    37    39    1
    26    37    40    1
    27    14    15   am
    28    15    16    2
    29    19    20   ar
    30    20    21   ar
    31    24    25   ar
    32    25    26   ar
    33    26    27   ar
    34    27    28    1
    35    28    29   ar
    36    29    30   ar
    37    30    31   ar
    38    31    32    1
    39    31    33   ar
    40    27    22   ar
    41    33    28   ar
    42    21    17   ar
    43    15     1    1
    44    13     4   ar
    45    13     8   ar
@<TRIPOS>MOLECULE
*****
 40 45 0 0 0
SMALL
GASTEIGER

@<TRIPOS>ATOM
      1 C         141.8864  140.7610  162.5658 C.3     1  UNL1        0.1834
      2 C         142.4850  139.8394  163.5868 C.3     1  UNL1        0.0386
      3 C         142.3745  139.9014  165.0815 C.3     1  UNL1        0.0301
      4 C         141.6382  140.9002  165.9242 C.ar    1  UNL1       -0.0084
      5 C         140.8305  142.0837  165.4805 C.ar    1  UNL1        0.0502
      6 C         140.1688  142.9644  166.4986 C.ar    1  UNL1        0.0146
      7 C         140.3149  142.6616  167.9604 C.ar    1  UNL1        0.0013
      8 C         141.1226  141.4780  168.4042 C.ar    1  UNL1       -0.0002
      9 C         141.2686  141.1752  169.8660 C.ar    1  UNL1       -0.0000
     10 C         142.0762  139.9917  170.3097 C.ar    1  UNL1       -0.0000
     11 C         142.7379  139.1110  169.2916 C.ar    1  UNL1       -0.0000
     12 C         142.5919  139.4138  167.8298 C.ar    1  UNL1       -0.0003
     13 C         141.7842  140.5973  167.3861 C.ar    1  UNL1       -0.0028
     14 N         140.5597  142.5607  164.0844 N.am    1  UNL1       -0.2492
     15 C         141.0296  141.9721  162.7872 C.2     1  UNL1        0.2520
     16 O         140.6768  142.5623  161.4541 O.2     1  UNL1       -0.2724
     17 C         143.2293  140.3803  158.9440 C.ar    1  UNL1        0.1233
     18 C         143.3090  140.9860  160.3139 C.ar    1  UNL1        0.1180
     19 N         142.1842  140.4273  161.1339 N.ar    1  UNL1       -0.2233
     20 N         141.4092  139.4763  160.2708 N.ar    1  UNL1       -0.0634
     21 N         142.0552  139.4473  158.9173 N.ar    1  UNL1       -0.1287
     22 C         146.0942  142.0479  156.7618 C.ar    1  UNL1        0.1547
     23 C         145.1632  141.7694  157.9045 C.ar    1  UNL1        0.0400
     24 C         144.1603  140.6588  157.8013 C.ar    1  UNL1        0.0241
     25 C         144.0883  139.8267  156.5554 C.ar    1  UNL1        0.0033
     26 C         145.0193  140.1052  155.4127 C.ar    1  UNL1        0.0207
     27 C         146.0222  141.2158  155.5160 C.ar    1  UNL1        0.0994
     28 N         146.9532  141.4943  154.3733 N.ar    1  UNL1       -0.2839
     29 C         146.5545  141.7087  152.9433 C.ar    1  UNL1        0.1826
     30 N         147.8012  141.9542  152.1462 N.ar    1  UNL1       -0.2280
     31 C         148.9705  141.8915  153.0836 C.ar    1  UNL1        0.0786
     32 C         150.4110  142.0799  152.7100 C.3     1  UNL1        0.0538
     33 C         148.4464  141.6072  154.4600 C.ar    1  UNL1        0.0963
     34 C         147.8484  143.3741  158.1455 C.3     1  UNL1        0.2525
     35 O         147.0971  143.1585  156.8651 O.3     1  UNL1       -0.4700
     36 C         139.7060  143.7888  163.9703 C.3     1  UNL1        0.2016
     37 C         140.2445  145.0169  163.2980 C.3     1  UNL1        0.4160
     38 F         140.7829  146.2448  162.6257 F       1  UNL1       -0.1682
     39 F         141.4289  145.0014  164.2184 F       1  UNL1       -0.1682
     40 F         139.1346  145.1818  162.3027 F       1  UNL1       -0.1682
@<TRIPOS>BOND
     1    34    35    1
     2    35    22    1
     3    22    23   ar
     4    23    24   ar
     5    24    17    1
     6    17    18   ar
     7    18    19   ar
     8    19     1    1
     9     1     2    1
    10     2     3    1
    11     3     4    1
    12     4     5   ar
    13     5     6   ar
    14     6     7   ar
    15     7     8   ar
    16     8     9   ar
    17     9    10   ar
    18    10    11   ar
    19    11    12   ar
    20    12    13   ar
    21     5    14    1
    22    14    36    1
    23    36    37    1
    24    37    38    1
    25    37    39    1
    26    37    40    1
    27    14    15   am
    28    15    16    2
    29    19    20   ar
    30    20    21   ar
    31    24    25   ar
    32    25    26   ar
    33    26    27   ar
    34    27    28    1
    35    28    29   ar
    36    29    30   ar
    37    30    31   ar
    38    31    32    1
    39    31    33   ar
    40    27    22   ar
    41    33    28   ar
    42    21    17   ar
    43    15     1    1
    44    13     4   ar
    45    13     8   ar
@<TRIPOS>MOLECULE
*****
 40 45 0 0 0
SMALL
GASTEIGER

@<TRIPOS>ATOM
      1 C         142.5702  140.4631  163.3976 C.3     1  UNL1        0.1834
      2 C         142.9945  139.5906  164.5416 C.3     1  UNL1        0.0386
      3 C         142.7017  139.7569  166.0034 C.3     1  UNL1        0.0301
      4 C         141.9124  140.8368  166.6821 C.ar    1  UNL1       -0.0084
      5 C         141.2209  142.0171  166.0668 C.ar    1  UNL1        0.0502
      6 C         140.4783  142.9883  166.9360 C.ar    1  UNL1        0.0146
      7 C         140.4274  142.7792  168.4205 C.ar    1  UNL1        0.0013
      8 C         141.1190  141.5988  169.0358 C.ar    1  UNL1       -0.0002
      9 C         141.0680  141.3897  170.5203 C.ar    1  UNL1       -0.0000
     10 C         141.7595  140.2094  171.1355 C.ar    1  UNL1       -0.0000
     11 C         142.5021  139.2382  170.2663 C.ar    1  UNL1       -0.0000
     12 C         142.5530  139.4473  168.7819 C.ar    1  UNL1       -0.0003
     13 C         141.8615  140.6276  168.1666 C.ar    1  UNL1       -0.0028
     14 N         141.1478  142.4090  164.6208 N.am    1  UNL1       -0.2492
     15 C         141.7483  141.7174  163.4328 C.2     1  UNL1        0.2520
     16 O         141.5914  142.2294  162.0317 O.2     1  UNL1       -0.2724
     17 C         143.0238  139.1944  159.7576 C.ar    1  UNL1        0.1233
     18 C         142.1496  139.5191  160.9325 C.ar    1  UNL1        0.1180
     19 N         143.0283  140.0231  162.0387 N.ar    1  UNL1       -0.2233
     20 N         144.4456  140.0100  161.5476 N.ar    1  UNL1       -0.0634
     21 N         144.4427  139.4978  160.1378 N.ar    1  UNL1       -0.1287
     22 C         142.2293  136.6633  156.8058 C.ar    1  UNL1        0.1547
     23 C         142.6927  137.1976  158.1286 C.ar    1  UNL1        0.0400
     24 C         142.5604  138.6601  158.4348 C.ar    1  UNL1        0.0241
     25 C         141.9648  139.5882  157.4182 C.ar    1  UNL1        0.0033
     26 C         141.5014  139.0539  156.0953 C.ar    1  UNL1        0.0207
     27 C         141.6337  137.5915  155.7892 C.ar    1  UNL1        0.0994
     28 N         141.1703  137.0572  154.4664 N.ar    1  UNL1       -0.2839
     29 C         142.0141  136.8937  153.2371 C.ar    1  UNL1        0.1826
     30 N         141.1470  136.3281  152.1516 N.ar    1  UNL1       -0.2280
     31 C         139.7673  136.1420  152.7101 C.ar    1  UNL1        0.0786
     32 C         138.5816  135.6004  151.9681 C.3     1  UNL1        0.0538
     33 C         139.7818  136.5926  154.1407 C.ar    1  UNL1        0.0963
     34 C         143.6346  134.6703  155.9095 C.3     1  UNL1        0.2525
     35 O         142.3617  135.2009  156.4997 O.3     1  UNL1       -0.4700
     36 C         140.3717  143.6576  164.3233 C.3     1  UNL1        0.2016
     37 C         141.0930  144.9158  163.9402 C.3     1  UNL1        0.4160
     38 F         141.8143  146.1739  163.5572 F       1  UNL1       -0.1682
     39 F         139.8140  145.4851  163.4017 F       1  UNL1       -0.1682
     40 F         142.4503  144.5040  164.4281 F       1  UNL1       -0.1682
@<TRIPOS>BOND
     1    34    35    1
     2    35    22    1
     3    22    23   ar
     4    23    24   ar
     5    24    17    1
     6    17    18   ar
     7    18    19   ar
     8    19     1    1
     9     1     2    1
    10     2     3    1
    11     3     4    1
    12     4     5   ar
    13     5     6   ar
    14     6     7   ar
    15     7     8   ar
    16     8     9   ar
    17     9    10   ar
    18    10    11   ar
    19    11    12   ar
    20    12    13   ar
    21     5    14    1
    22    14    36    1
    23    36    37    1
    24    37    38    1
    25    37    39    1
    26    37    40    1
    27    14    15   am
    28    15    16    2
    29    19    20   ar
    30    20    21   ar
    31    24    25   ar
    32    25    26   ar
    33    26    27   ar
    34    27    28    1
    35    28    29   ar
    36    29    30   ar
    37    30    31   ar
    38    31    32    1
    39    31    33   ar
    40    27    22   ar
    41    33    28   ar
    42    21    17   ar
    43    15     1    1
    44    13     4   ar
    45    13     8   ar
