@<TRIPOS>MOLECULE
*****
 28 32 0 0 0
SMALL
GASTEIGER

@<TRIPOS>ATOM
      1 C         141.1670  143.9897  161.2958 C.2     1  UNL1        0.1253
      2 C         140.8061  145.2884  160.6378 C.2     1  UNL1        0.0701
      3 C         139.6639  146.1047  161.1659 C.2     1  UNL1        0.2372
      4 N         138.8827  145.6224  162.3521 N.2     1  UNL1       -0.0302
      5 C         139.2436  144.3237  163.0102 C.2     1  UNL1        0.4107
      6 N         138.6599  143.5980  164.1860 N.2     1  UNL1        0.0120
      7 C         139.4413  142.3331  164.3846 C.2     1  UNL1        0.3752
      8 N         140.5080  142.2770  163.3315 N.2     1  UNL1       -0.0448
      9 C         140.3858  143.5073  162.4820 C.3     1  UNL1        0.3643
     10 C         139.1987  141.3048  165.4494 C.ar    1  UNL1        0.0896
     11 C         138.2681  140.1581  165.1865 C.ar    1  UNL1        0.0078
     12 C         138.0254  139.1298  166.2512 C.ar    1  UNL1        0.0017
     13 C         138.7133  139.2482  167.5789 C.ar    1  UNL1        0.0172
     14 C         139.6438  140.3949  167.8418 C.ar    1  UNL1        0.0602
     15 C         139.8865  141.4232  166.7771 C.ar    1  UNL1        0.0247
     16 C         140.8503  142.4357  167.3215 C.ar    1  UNL1        0.0203
     17 C         141.2032  142.0331  168.7227 C.ar    1  UNL1        0.0760
     18 N         140.4575  140.7718  169.0443 N.ar    1  UNL1       -0.3240
     19 C         140.5155  140.0196  170.3408 C.3     1  UNL1        0.1305
     20 C         143.5817  141.4119  159.6864 C.ar    1  UNL1        0.0339
     21 C         144.5520  142.4219  160.2236 C.ar    1  UNL1        0.1191
     22 N         143.7656  143.5104  160.8919 N.ar    1  UNL1       -0.1639
     23 N         142.3092  143.1732  160.7677 N.ar    1  UNL1       -0.2276
     24 C         142.1956  141.8763  160.0227 C.ar    1  UNL1        0.0988
     25 C         143.9354  140.1578  158.9434 C.3     1  UNL1        0.1024
     26 C         142.6608  137.9125  158.6539 C.3     1  UNL1        0.0899
     27 N         143.5170  138.8226  159.4838 N.3     1  UNL1       -0.2664
     28 C         143.9548  138.3974  160.8540 C.3     1  UNL1        0.0899
@<TRIPOS>BOND
     1    26    27    1
     2    27    28    1
     3    27    25    1
     4    25    20    1
     5    20    21   ar
     6    21    22   ar
     7    22    23   ar
     8    23     1    1
     9     1     2    2
    10     2     3    1
    11     3     4    2
    12     4     5    1
    13     5     6    2
    14     6     7    1
    15     7    10    1
    16    10    11   ar
    17    11    12   ar
    18    12    13   ar
    19    13    14   ar
    20    14    15   ar
    21    15    16   ar
    22    16    17   ar
    23    17    18   ar
    24    18    19    1
    25     7     8    2
    26     8     9    1
    27    23    24   ar
    28    24    20   ar
    29     9     1    1
    30     9     5    1
    31    15    10   ar
    32    18    14   ar
@<TRIPOS>MOLECULE
*****
 28 32 0 0 0
SMALL
GASTEIGER

@<TRIPOS>ATOM
      1 C         139.3412  140.1942  162.1504 C.2     1  UNL1        0.1253
      2 C         138.9020  139.1495  161.1678 C.2     1  UNL1        0.0701
      3 C         138.4751  137.7959  161.6531 C.2     1  UNL1        0.2372
      4 N         138.4874  137.4870  163.1209 N.2     1  UNL1       -0.0302
      5 C         138.9266  138.5318  164.1035 C.2     1  UNL1        0.4107
      6 N         139.0427  138.5176  165.5989 N.2     1  UNL1        0.0120
      7 C         139.5413  139.8625  166.0379 C.2     1  UNL1        0.3752
      8 N         139.7335  140.7078  164.8138 N.2     1  UNL1       -0.0448
      9 C         139.3536  139.8854  163.6182 C.3     1  UNL1        0.3643
     10 C         139.8021  140.2874  167.4527 C.ar    1  UNL1        0.0896
     11 C         138.8399  139.9080  168.5391 C.ar    1  UNL1        0.0078
     12 C         139.1006  140.3328  169.9539 C.ar    1  UNL1        0.0017
     13 C         140.3234  141.1370  170.2822 C.ar    1  UNL1        0.0172
     14 C         141.2855  141.5165  169.1958 C.ar    1  UNL1        0.0602
     15 C         141.0249  141.0916  167.7810 C.ar    1  UNL1        0.0247
     16 C         142.1441  141.6103  166.9276 C.ar    1  UNL1        0.0203
     17 C         143.0965  142.3557  167.8148 C.ar    1  UNL1        0.0760
     18 N         142.5658  142.2977  169.2167 N.ar    1  UNL1       -0.3240
     19 C         143.2037  142.9130  170.4269 C.3     1  UNL1        0.1305
     20 C         141.0677  143.5648  161.2996 C.ar    1  UNL1        0.0339
     21 C         139.7824  143.6971  160.5376 C.ar    1  UNL1        0.1191
     22 N         138.9793  142.4505  160.7636 N.ar    1  UNL1       -0.1639
     23 N         139.7682  141.5479  161.6652 N.ar    1  UNL1       -0.2276
     24 C         141.0589  142.2366  161.9965 C.ar    1  UNL1        0.0988
     25 C         142.1686  144.5822  161.3549 C.3     1  UNL1        0.1024
     26 C         144.4261  143.3706  161.7860 C.3     1  UNL1        0.0899
     27 N         143.3691  144.3418  162.2214 N.3     1  UNL1       -0.2664
     28 C         143.5127  145.0727  163.5235 C.3     1  UNL1        0.0899
@<TRIPOS>BOND
     1    26    27    1
     2    27    28    1
     3    27    25    1
     4    25    20    1
     5    20    21   ar
     6    21    22   ar
     7    22    23   ar
     8    23     1    1
     9     1     2    2
    10     2     3    1
    11     3     4    2
    12     4     5    1
    13     5     6    2
    14     6     7    1
    15     7    10    1
    16    10    11   ar
    17    11    12   ar
    18    12    13   ar
    19    13    14   ar
    20    14    15   ar
    21    15    16   ar
    22    16    17   ar
    23    17    18   ar
    24    18    19    1
    25     7     8    2
    26     8     9    1
    27    23    24   ar
    28    24    20   ar
    29     9     1    1
    30     9     5    1
    31    15    10   ar
    32    18    14   ar
@<TRIPOS>MOLECULE
*****
 28 32 0 0 0
SMALL
GASTEIGER

@<TRIPOS>ATOM
      1 C         140.1220  140.3226  162.0853 C.2     1  UNL1        0.1253
      2 C         139.6964  139.3364  161.0383 C.2     1  UNL1        0.0701
      3 C         139.0699  138.0353  161.4439 C.2     1  UNL1        0.2372
      4 N         138.8690  137.7204  162.8967 N.2     1  UNL1       -0.0302
      5 C         139.2945  138.7066  163.9437 C.2     1  UNL1        0.4107
      6 N         139.2242  138.6731  165.4417 N.2     1  UNL1        0.0120
      7 C         139.8073  139.9536  165.9618 C.2     1  UNL1        0.3752
      8 N         140.2379  140.7784  164.7853 N.2     1  UNL1       -0.0448
      9 C         139.9210  140.0077  163.5380 C.3     1  UNL1        0.3643
     10 C         139.9369  140.3411  167.4051 C.ar    1  UNL1        0.0896
     11 C         138.8895  139.9183  168.3922 C.ar    1  UNL1        0.0078
     12 C         139.0191  140.3058  169.8354 C.ar    1  UNL1        0.0017
     13 C         140.1961  141.1161  170.2916 C.ar    1  UNL1        0.0172
     14 C         141.2434  141.5389  169.3046 C.ar    1  UNL1        0.0602
     15 C         141.1138  141.1514  167.8613 C.ar    1  UNL1        0.0247
     16 C         142.2952  141.7088  167.1238 C.ar    1  UNL1        0.0203
     17 C         143.1549  142.4408  168.1112 C.ar    1  UNL1        0.0760
     18 N         142.5048  142.3358  169.4591 N.ar    1  UNL1       -0.3240
     19 C         143.0250  142.9244  170.7370 C.3     1  UNL1        0.1305
     20 C         141.2272  143.6824  160.4866 C.ar    1  UNL1        0.0339
     21 C         142.1981  143.5696  161.6244 C.ar    1  UNL1        0.1191
     22 N         141.9023  142.2973  162.3618 N.ar    1  UNL1       -0.1639
     23 N         140.7485  141.6238  161.6796 N.ar    1  UNL1       -0.2276
     24 C         140.3313  142.4798  160.5207 C.ar    1  UNL1        0.0988
     25 C         141.1634  144.8013  159.4896 C.3     1  UNL1        0.1024
     26 C         142.1478  146.0192  157.4165 C.3     1  UNL1        0.0899
     27 N         142.1261  144.8373  158.3399 N.3     1  UNL1       -0.2664
     28 C         143.0671  143.6913  158.1136 C.3     1  UNL1        0.0899
@<TRIPOS>BOND
     1    26    27    1
     2    27    28    1
     3    27    25    1
     4    25    20    1
     5    20    21   ar
     6    21    22   ar
     7    22    23   ar
     8    23     1    1
     9     1     2    2
    10     2     3    1
    11     3     4    2
    12     4     5    1
    13     5     6    2
    14     6     7    1
    15     7    10    1
    16    10    11   ar
    17    11    12   ar
    18    12    13   ar
    19    13    14   ar
    20    14    15   ar
    21    15    16   ar
    22    16    17   ar
    23    17    18   ar
    24    18    19    1
    25     7     8    2
    26     8     9    1
    27    23    24   ar
    28    24    20   ar
    29     9     1    1
    30     9     5    1
    31    15    10   ar
    32    18    14   ar
@<TRIPOS>MOLECULE
*****
 28 32 0 0 0
SMALL
GASTEIGER

@<TRIPOS>ATOM
      1 C         143.0049  138.6973  158.1947 C.2     1  UNL1        0.1253
      2 C         143.1227  140.0769  157.6180 C.2     1  UNL1        0.0701
      3 C         143.0822  140.2744  156.1316 C.2     1  UNL1        0.2372
      4 N         142.9237  139.0923  155.2220 N.2     1  UNL1       -0.0302
      5 C         142.8058  137.7126  155.7987 C.2     1  UNL1        0.4107
      6 N         142.6416  136.3670  155.1566 N.2     1  UNL1        0.0120
      7 C         142.5806  135.3378  156.2462 C.2     1  UNL1        0.3752
      8 N         142.7072  136.0474  157.5616 N.2     1  UNL1       -0.0448
      9 C         142.8464  137.5151  157.2850 C.3     1  UNL1        0.3643
     10 C         142.4211  133.8587  156.0539 C.ar    1  UNL1        0.0896
     11 C         141.3152  133.3297  155.1895 C.ar    1  UNL1        0.0078
     12 C         141.1557  131.8507  154.9972 C.ar    1  UNL1        0.0017
     13 C         142.1020  130.9007  155.6694 C.ar    1  UNL1        0.0172
     14 C         143.2079  131.4297  156.5338 C.ar    1  UNL1        0.0602
     15 C         143.3674  132.9087  156.7261 C.ar    1  UNL1        0.0247
     16 C         144.5436  133.1345  157.6293 C.ar    1  UNL1        0.0203
     17 C         145.1110  131.7951  157.9952 C.ar    1  UNL1        0.0760
     18 N         144.2854  130.7414  157.3182 N.ar    1  UNL1       -0.3240
     19 C         144.4999  129.2595  157.4095 C.3     1  UNL1        0.1305
     20 C         142.3823  138.0062  161.9630 C.ar    1  UNL1        0.0339
     21 C         143.8336  138.3852  161.9738 C.ar    1  UNL1        0.1191
     22 N         144.2434  138.6902  160.5635 N.ar    1  UNL1       -0.1639
     23 N         143.0454  138.4997  159.6811 N.ar    1  UNL1       -0.2276
     24 C         141.8952  138.0769  160.5461 C.ar    1  UNL1        0.0988
     25 C         141.5621  137.6236  163.1593 C.3     1  UNL1        0.1024
     26 C         140.0224  139.6437  163.7054 C.3     1  UNL1        0.0899
     27 N         141.0949  138.6792  164.1170 N.3     1  UNL1       -0.2664
     28 C         141.7003  138.7703  165.4864 C.3     1  UNL1        0.0899
@<TRIPOS>BOND
     1    26    27    1
     2    27    28    1
     3    27    25    1
     4    25    20    1
     5    20    21   ar
     6    21    22   ar
     7    22    23   ar
     8    23     1    1
     9     1     2    2
    10     2     3    1
    11     3     4    2
    12     4     5    1
    13     5     6    2
    14     6     7    1
    15     7    10    1
    16    10    11   ar
    17    11    12   ar
    18    12    13   ar
    19    13    14   ar
    20    14    15   ar
    21    15    16   ar
    22    16    17   ar
    23    17    18   ar
    24    18    19    1
    25     7     8    2
    26     8     9    1
    27    23    24   ar
    28    24    20   ar
    29     9     1    1
    30     9     5    1
    31    15    10   ar
    32    18    14   ar
@<TRIPOS>MOLECULE
*****
 28 32 0 0 0
SMALL
GASTEIGER

@<TRIPOS>ATOM
      1 C         142.3763  140.0216  165.3548 C.2     1  UNL1        0.1253
      2 C         143.5444  139.0971  165.5298 C.2     1  UNL1        0.0701
      3 C         144.7284  139.2032  164.6151 C.2     1  UNL1        0.2372
      4 N         144.7443  140.2339  163.5254 N.2     1  UNL1       -0.0302
      5 C         143.5762  141.1585  163.3504 C.2     1  UNL1        0.4107
      6 N         143.3093  142.2649  162.3734 N.2     1  UNL1        0.0120
      7 C         141.9604  142.8425  162.6843 C.2     1  UNL1        0.3752
      8 N         141.3935  142.0931  163.8534 N.2     1  UNL1       -0.0448
      9 C         142.3922  141.0523  164.2651 C.3     1  UNL1        0.3643
     10 C         141.2951  143.9714  161.9541 C.ar    1  UNL1        0.0896
     11 C         140.5039  144.9938  162.7149 C.ar    1  UNL1        0.0078
     12 C         139.8387  146.1227  161.9848 C.ar    1  UNL1        0.0017
     13 C         139.9646  146.2292  160.4939 C.ar    1  UNL1        0.0172
     14 C         140.7558  145.2068  159.7331 C.ar    1  UNL1        0.0602
     15 C         141.4210  144.0779  160.4632 C.ar    1  UNL1        0.0247
     16 C         142.1302  143.2262  159.4524 C.ar    1  UNL1        0.0203
     17 C         141.9033  143.8286  158.0976 C.ar    1  UNL1        0.0760
     18 N         141.0538  145.0527  158.2711 N.ar    1  UNL1       -0.3240
     19 C         140.5847  145.9629  157.1749 C.3     1  UNL1        0.1305
     20 C         139.7607  140.0884  168.2219 C.ar    1  UNL1        0.0339
     21 C         138.9793  139.4158  167.1324 C.ar    1  UNL1        0.1191
     22 N         139.8640  139.3089  165.9258 N.ar    1  UNL1       -0.1639
     23 N         141.1922  139.9155  166.2696 N.ar    1  UNL1       -0.2276
     24 C         141.1283  140.3972  167.6886 C.ar    1  UNL1        0.0988
     25 C         139.2620  140.3979  169.6023 C.3     1  UNL1        0.1024
     26 C         141.0684  140.7911  171.4278 C.3     1  UNL1        0.0899
     27 N         140.0335  141.3323  170.4865 N.3     1  UNL1       -0.2664
     28 C         139.7700  142.8079  170.4294 C.3     1  UNL1        0.0899
@<TRIPOS>BOND
     1    26    27    1
     2    27    28    1
     3    27    25    1
     4    25    20    1
     5    20    21   ar
     6    21    22   ar
     7    22    23   ar
     8    23     1    1
     9     1     2    2
    10     2     3    1
    11     3     4    2
    12     4     5    1
    13     5     6    2
    14     6     7    1
    15     7    10    1
    16    10    11   ar
    17    11    12   ar
    18    12    13   ar
    19    13    14   ar
    20    14    15   ar
    21    15    16   ar
    22    16    17   ar
    23    17    18   ar
    24    18    19    1
    25     7     8    2
    26     8     9    1
    27    23    24   ar
    28    24    20   ar
    29     9     1    1
    30     9     5    1
    31    15    10   ar
    32    18    14   ar
@<TRIPOS>MOLECULE
*****
 28 32 0 0 0
SMALL
GASTEIGER

@<TRIPOS>ATOM
      1 C         140.7677  143.6675  160.8044 C.2     1  UNL1        0.1253
      2 C         140.6293  145.0642  160.2754 C.2     1  UNL1        0.0701
      3 C         139.9242  146.1081  161.0896 C.2     1  UNL1        0.2372
      4 N         139.3575  145.7553  162.4329 N.2     1  UNL1       -0.0302
      5 C         139.4959  144.3585  162.9619 C.2     1  UNL1        0.4107
      6 N         139.0428  143.7204  164.2415 N.2     1  UNL1        0.0120
      7 C         139.4678  142.2821  164.2181 C.2     1  UNL1        0.3752
      8 N         140.1836  142.0313  162.9240 N.2     1  UNL1       -0.0448
      9 C         140.2009  143.3146  162.1476 C.3     1  UNL1        0.3643
     10 C         139.2205  141.2719  165.2991 C.ar    1  UNL1        0.0896
     11 C         138.2748  140.1327  165.0588 C.ar    1  UNL1        0.0078
     12 C         138.0274  139.1225  166.1397 C.ar    1  UNL1        0.0017
     13 C         138.7258  139.2516  167.4609 C.ar    1  UNL1        0.0172
     14 C         139.6715  140.3909  167.7012 C.ar    1  UNL1        0.0602
     15 C         139.9189  141.4010  166.6203 C.ar    1  UNL1        0.0247
     16 C         140.8982  142.4096  167.1437 C.ar    1  UNL1        0.0203
     17 C         141.2560  142.0228  168.5480 C.ar    1  UNL1        0.0760
     18 N         140.4979  140.7751  168.8926 N.ar    1  UNL1       -0.3240
     19 C         140.5560  140.0407  170.1993 C.3     1  UNL1        0.1305
     20 C         143.1754  141.4423  158.7267 C.ar    1  UNL1        0.0339
     21 C         141.9401  140.5916  158.7476 C.ar    1  UNL1        0.1191
     22 N         140.8878  141.3217  159.5284 N.ar    1  UNL1       -0.1639
     23 N         141.4728  142.6235  159.9901 N.ar    1  UNL1       -0.2276
     24 C         142.8866  142.6980  159.4946 C.ar    1  UNL1        0.0988
     25 C         144.4720  141.0976  158.0557 C.3     1  UNL1        0.1024
     26 C         143.9171  142.4603  155.9143 C.3     1  UNL1        0.0899
     27 N         144.9271  141.8775  156.8579 N.3     1  UNL1       -0.2664
     28 C         146.3922  142.0745  156.6037 C.3     1  UNL1        0.0899
@<TRIPOS>BOND
     1    26    27    1
     2    27    28    1
     3    27    25    1
     4    25    20    1
     5    20    21   ar
     6    21    22   ar
     7    22    23   ar
     8    23     1    1
     9     1     2    2
    10     2     3    1
    11     3     4    2
    12     4     5    1
    13     5     6    2
    14     6     7    1
    15     7    10    1
    16    10    11   ar
    17    11    12   ar
    18    12    13   ar
    19    13    14   ar
    20    14    15   ar
    21    15    16   ar
    22    16    17   ar
    23    17    18   ar
    24    18    19    1
    25     7     8    2
    26     8     9    1
    27    23    24   ar
    28    24    20   ar
    29     9     1    1
    30     9     5    1
    31    15    10   ar
    32    18    14   ar
@<TRIPOS>MOLECULE
*****
 28 32 0 0 0
SMALL
GASTEIGER

@<TRIPOS>ATOM
      1 C         139.8995  144.4126  157.0089 C.2     1  UNL1        0.1253
      2 C         140.8953  145.0639  156.0956 C.2     1  UNL1        0.0701
      3 C         142.0916  145.7647  156.6680 C.2     1  UNL1        0.2372
      4 N         142.2921  145.8142  158.1537 N.2     1  UNL1       -0.0302
      5 C         141.2964  145.1629  159.0670 C.2     1  UNL1        0.4107
      6 N         141.2293  145.0490  160.5612 N.2     1  UNL1        0.0120
      7 C         139.9916  144.2778  160.9123 C.2     1  UNL1        0.3752
      8 N         139.2936  143.9150  159.6351 N.2     1  UNL1       -0.0448
      9 C         140.1000  144.4621  158.4946 C.3     1  UNL1        0.3643
     10 C         139.5324  143.9303  162.2974 C.ar    1  UNL1        0.0896
     11 C         139.3056  145.0164  163.3068 C.ar    1  UNL1        0.0078
     12 C         138.8465  144.6690  164.6919 C.ar    1  UNL1        0.0017
     13 C         138.6142  143.2355  165.0675 C.ar    1  UNL1        0.0172
     14 C         138.8410  142.1494  164.0581 C.ar    1  UNL1        0.0602
     15 C         139.3001  142.4968  162.6730 C.ar    1  UNL1        0.0247
     16 C         139.4389  141.2206  161.8969 C.ar    1  UNL1        0.0203
     17 C         139.0656  140.0846  162.8024 C.ar    1  UNL1        0.0760
     18 N         138.6961  140.6586  164.1381 N.ar    1  UNL1       -0.3240
     19 C         138.2584  139.8786  165.3423 C.3     1  UNL1        0.1305
     20 C         137.1047  141.9845  155.8431 C.ar    1  UNL1        0.0339
     21 C         136.6195  143.2823  155.2683 C.ar    1  UNL1        0.1191
     22 N         137.6074  144.3498  155.6351 N.ar    1  UNL1       -0.1639
     23 N         138.7031  143.7118  156.4365 N.ar    1  UNL1       -0.2276
     24 C         138.3924  142.2500  156.5651 C.ar    1  UNL1        0.0988
     25 C         136.4220  140.6547  155.7179 C.3     1  UNL1        0.1024
     26 C         134.0160  140.2017  156.5872 C.3     1  UNL1        0.0899
     27 N         134.9433  140.5908  155.4743 N.3     1  UNL1       -0.2664
     28 C         134.3920  140.9160  154.1177 C.3     1  UNL1        0.0899
@<TRIPOS>BOND
     1    26    27    1
     2    27    28    1
     3    27    25    1
     4    25    20    1
     5    20    21   ar
     6    21    22   ar
     7    22    23   ar
     8    23     1    1
     9     1     2    2
    10     2     3    1
    11     3     4    2
    12     4     5    1
    13     5     6    2
    14     6     7    1
    15     7    10    1
    16    10    11   ar
    17    11    12   ar
    18    12    13   ar
    19    13    14   ar
    20    14    15   ar
    21    15    16   ar
    22    16    17   ar
    23    17    18   ar
    24    18    19    1
    25     7     8    2
    26     8     9    1
    27    23    24   ar
    28    24    20   ar
    29     9     1    1
    30     9     5    1
    31    15    10   ar
    32    18    14   ar
@<TRIPOS>MOLECULE
*****
 28 32 0 0 0
SMALL
GASTEIGER

@<TRIPOS>ATOM
      1 C         142.9450  137.0322  156.6183 C.2     1  UNL1        0.1253
      2 C         143.1859  137.7945  155.3491 C.2     1  UNL1        0.0701
      3 C         143.3176  139.2882  155.3849 C.2     1  UNL1        0.2372
      4 N         143.2085  140.0197  156.6899 N.2     1  UNL1       -0.0302
      5 C         142.9676  139.2574  157.9591 C.2     1  UNL1        0.4107
      6 N         142.8162  139.7020  159.3836 N.2     1  UNL1        0.0120
      7 C         142.5908  138.4831  160.2283 C.2     1  UNL1        0.3752
      8 N         142.6030  137.2851  159.3258 N.2     1  UNL1       -0.0448
      9 C         142.8359  137.7637  157.9233 C.3     1  UNL1        0.3643
     10 C         142.3888  138.4653  161.7146 C.ar    1  UNL1        0.0896
     11 C         143.5537  138.6894  162.6325 C.ar    1  UNL1        0.0078
     12 C         143.3517  138.6717  164.1187 C.ar    1  UNL1        0.0017
     13 C         141.9848  138.4298  164.6869 C.ar    1  UNL1        0.0172
     14 C         140.8199  138.2057  163.7690 C.ar    1  UNL1        0.0602
     15 C         141.0218  138.2234  162.2828 C.ar    1  UNL1        0.0247
     16 C         139.6939  137.9730  161.6315 C.ar    1  UNL1        0.0203
     17 C         138.6713  137.8005  162.7151 C.ar    1  UNL1        0.0760
     18 N         139.3672  137.9443  164.0362 N.ar    1  UNL1       -0.3240
     19 C         138.7232  137.8443  165.3873 C.3     1  UNL1        0.1305
     20 C         142.1284  133.2959  155.9558 C.ar    1  UNL1        0.0339
     21 C         143.0928  133.1835  157.0993 C.ar    1  UNL1        0.1191
     22 N         143.5160  134.5694  157.4866 N.ar    1  UNL1       -0.1639
     23 N         142.8133  135.5384  156.5825 N.ar    1  UNL1       -0.2276
     24 C         141.9557  134.7513  155.6365 C.ar    1  UNL1        0.0988
     25 C         141.4550  132.1534  155.2548 C.3     1  UNL1        0.1024
     26 C         143.3727  131.1084  153.8475 C.3     1  UNL1        0.0899
     27 N         142.2540  130.9554  154.8350 N.3     1  UNL1       -0.2664
     28 C         141.9342  129.6043  155.4027 C.3     1  UNL1        0.0899
@<TRIPOS>BOND
     1    26    27    1
     2    27    28    1
     3    27    25    1
     4    25    20    1
     5    20    21   ar
     6    21    22   ar
     7    22    23   ar
     8    23     1    1
     9     1     2    2
    10     2     3    1
    11     3     4    2
    12     4     5    1
    13     5     6    2
    14     6     7    1
    15     7    10    1
    16    10    11   ar
    17    11    12   ar
    18    12    13   ar
    19    13    14   ar
    20    14    15   ar
    21    15    16   ar
    22    16    17   ar
    23    17    18   ar
    24    18    19    1
    25     7     8    2
    26     8     9    1
    27    23    24   ar
    28    24    20   ar
    29     9     1    1
    30     9     5    1
    31    15    10   ar
    32    18    14   ar
@<TRIPOS>MOLECULE
*****
 28 32 0 0 0
SMALL
GASTEIGER

@<TRIPOS>ATOM
      1 C         138.8145  142.9892  157.1827 C.2     1  UNL1        0.1253
      2 C         138.4061  141.9787  156.1521 C.2     1  UNL1        0.0701
      3 C         137.8756  140.6428  156.5807 C.2     1  UNL1        0.2372
      4 N         137.7536  140.3172  158.0398 N.2     1  UNL1       -0.0302
      5 C         138.1620  141.3277  159.0704 C.2     1  UNL1        0.4107
      6 N         138.1554  141.2910  160.5699 N.2     1  UNL1        0.0120
      7 C         138.6818  142.6043  161.0681 C.2     1  UNL1        0.3752
      8 N         139.0137  143.4526  159.8765 N.2     1  UNL1       -0.0448
      9 C         138.6925  142.6636  158.6418 C.3     1  UNL1        0.3643
     10 C         138.8471  142.9997  162.5056 C.ar    1  UNL1        0.0896
     11 C         137.8643  143.9361  163.1437 C.ar    1  UNL1        0.0078
     12 C         138.0296  144.3316  164.5811 C.ar    1  UNL1        0.0017
     13 C         139.1778  143.7906  165.3805 C.ar    1  UNL1        0.0172
     14 C         140.1606  142.8541  164.7424 C.ar    1  UNL1        0.0602
     15 C         139.9953  142.4587  163.3050 C.ar    1  UNL1        0.0247
     16 C         141.1144  141.5252  162.9494 C.ar    1  UNL1        0.0203
     17 C         141.9713  141.3437  164.1670 C.ar    1  UNL1        0.0760
     18 N         141.3818  142.1651  165.2752 N.ar    1  UNL1       -0.3240
     19 C         141.9193  142.2775  166.6711 C.3     1  UNL1        0.1305
     20 C         139.5358  146.5028  155.6995 C.ar    1  UNL1        0.0339
     21 C         140.7872  146.2594  156.4899 C.ar    1  UNL1        0.1191
     22 N         140.6693  144.9136  157.1417 N.ar    1  UNL1       -0.1639
     23 N         139.3451  144.3252  156.7541 N.ar    1  UNL1       -0.2276
     24 C         138.6445  145.3074  155.8628 C.ar    1  UNL1        0.0988
     25 C         139.2294  147.7267  154.8881 C.3     1  UNL1        0.1024
     26 C         138.4256  149.0196  156.9935 C.3     1  UNL1        0.0899
     27 N         138.9137  149.0222  155.5751 N.3     1  UNL1       -0.2664
     28 C         139.0861  150.3204  154.8437 C.3     1  UNL1        0.0899
@<TRIPOS>BOND
     1    26    27    1
     2    27    28    1
     3    27    25    1
     4    25    20    1
     5    20    21   ar
     6    21    22   ar
     7    22    23   ar
     8    23     1    1
     9     1     2    2
    10     2     3    1
    11     3     4    2
    12     4     5    1
    13     5     6    2
    14     6     7    1
    15     7    10    1
    16    10    11   ar
    17    11    12   ar
    18    12    13   ar
    19    13    14   ar
    20    14    15   ar
    21    15    16   ar
    22    16    17   ar
    23    17    18   ar
    24    18    19    1
    25     7     8    2
    26     8     9    1
    27    23    24   ar
    28    24    20   ar
    29     9     1    1
    30     9     5    1
    31    15    10   ar
    32    18    14   ar
