@<TRIPOS>MOLECULE
*****
 44 50 0 0 0
SMALL
GASTEIGER

@<TRIPOS>ATOM
      1 C         139.6108  139.0269  162.2985 C.ar    1  UNL1       -0.0061
      2 C         138.4310  139.0973  163.2221 C.ar    1  UNL1       -0.0029
      3 C         138.5606  139.7750  164.5539 C.ar    1  UNL1        0.0011
      4 C         139.8699  140.3824  164.9622 C.ar    1  UNL1        0.0156
      5 C         141.0497  140.3121  164.0386 C.ar    1  UNL1        0.0011
      6 C         140.9202  139.6344  162.7068 C.ar    1  UNL1       -0.0029
      7 C         139.9994  141.0602  166.2941 C.ar    1  UNL1        0.0565
      8 N         140.2530  140.2463  167.5283 N.ar    1  UNL1       -0.3530
      9 C         140.3825  140.9240  168.8602 C.ar    1  UNL1        0.0628
     10 C         140.6361  140.1101  170.0944 C.ar    1  UNL1        0.0378
     11 C         140.7656  140.7879  171.4262 C.ar    1  UNL1        0.1037
     12 N         140.6415  142.2796  171.5239 N.ar    1  UNL1       -0.2062
     13 C         140.3878  143.0935  170.2897 C.ar    1  UNL1        0.2806
     14 O         140.2637  144.5851  170.3874 O.2     1  UNL1       -0.2651
     15 C         140.2584  142.4157  168.9579 C.ar    1  UNL1        0.0735
     16 C         140.0047  143.2296  167.7236 C.ar    1  UNL1        0.0077
     17 C         139.8752  142.5518  166.3918 C.ar    1  UNL1        0.0158
     18 H         140.3345  139.2672  167.4642 H       1  UNL1        0.1659
     19 C         139.6216  143.3657  165.1575 C.ar    1  UNL1        0.0014
     20 C         140.7625  144.0445  164.4592 C.ar    1  UNL1        0.0000
     21 C         140.5089  144.8584  163.2250 C.ar    1  UNL1        0.0000
     22 C         139.1144  144.9934  162.6892 C.ar    1  UNL1        0.0000
     23 C         137.9736  144.3147  163.3875 C.ar    1  UNL1        0.0000
     24 C         138.2271  143.5008  164.6217 C.ar    1  UNL1        0.0000
     25 C         139.4813  138.3492  160.9666 C.3     1  UNL1        0.0991
     26 C         142.6017  139.0110  157.7924 C.3     1  UNL1        0.0613
     27 C         142.9426  138.2326  159.0285 C.3     1  UNL1        0.0249
     28 C         141.9024  138.0120  160.0866 C.3     1  UNL1        0.0728
     29 N         140.5214  138.5698  159.9085 N.3     1  UNL1       -0.2689
     30 C         140.1805  139.3482  158.6725 C.3     1  UNL1        0.0728
     31 C         141.2206  139.5688  157.6144 C.3     1  UNL1        0.0249
     32 C         145.3304  140.2782  155.3402 C.ar    1  UNL1        0.1639
     33 N         145.1544  138.8640  154.8722 N.ar    1  UNL1       -0.1293
     34 N         144.1108  138.2171  155.7339 N.ar    1  UNL1       -0.1336
     35 C         143.6418  139.2316  156.7344 C.ar    1  UNL1        0.1396
     36 N         144.3955  140.5054  156.4911 N.ar    1  UNL1       -0.3246
     37 H         144.2945  141.3434  156.9977 H       1  UNL1        0.1686
     38 O         149.1101  144.3174  153.0164 O.2     1  UNL1       -0.2726
     39 C         148.1652  143.3076  153.5974 C.2     1  UNL1        0.2500
     40 C         148.5875  142.4729  154.7701 C.3     1  UNL1        0.1133
     41 C         147.6425  141.4632  155.3510 C.2     1  UNL1       -0.0121
     42 C         146.2753  141.2880  154.7593 C.2     1  UNL1        0.0485
     43 C         145.8531  142.1226  153.5866 C.2     1  UNL1        0.0913
     44 N         146.7980  143.1324  153.0057 N.am    1  UNL1       -0.1775
@<TRIPOS>BOND
     1    38    39    2
     2    39    40    1
     3    40    41    1
     4    41    42    2
     5    42    32    1
     6    32    33   ar
     7    33    34   ar
     8    34    35   ar
     9    35    26    1
    10    26    27    1
    11    27    28    1
    12    28    29    1
    13    29    25    1
    14    25     1    1
    15     1     2   ar
    16     2     3   ar
    17     3     4   ar
    18     4     7    1
    19     7     8   ar
    20     8     9   ar
    21     9    10   ar
    22    10    11   ar
    23    11    12   ar
    24    12    13   ar
    25    13    14    2
    26    13    15   ar
    27    15    16   ar
    28    16    17   ar
    29    17    19    1
    30    19    20   ar
    31    20    21   ar
    32    21    22   ar
    33    22    23   ar
    34    23    24   ar
    35     4     5   ar
    36     5     6   ar
    37    29    30    1
    38    30    31    1
    39    35    36   ar
    40    42    43    1
    41    43    44    2
    42    44    39    1
    43    36    32   ar
    44    31    26    1
    45     6     1   ar
    46    17     7   ar
    47    24    19   ar
    48    15     9    1
    49     8    18    1
    50    36    37    1
@<TRIPOS>MOLECULE
*****
 44 50 0 0 0
SMALL
GASTEIGER

@<TRIPOS>ATOM
      1 C         143.4278  142.4564  161.9926 C.ar    1  UNL1       -0.0061
      2 C         143.7236  143.5203  163.0078 C.ar    1  UNL1       -0.0029
      3 C         143.2166  143.3784  164.4123 C.ar    1  UNL1        0.0011
      4 C         142.4137  142.1726  164.8016 C.ar    1  UNL1        0.0156
      5 C         142.1179  141.1088  163.7864 C.ar    1  UNL1        0.0011
      6 C         142.6250  141.2507  162.3819 C.ar    1  UNL1       -0.0029
      7 C         141.9067  142.0307  166.2062 C.ar    1  UNL1        0.0565
      8 N         142.8108  141.5024  167.2802 N.ar    1  UNL1       -0.3530
      9 C         142.3037  141.3606  168.6848 C.ar    1  UNL1        0.0628
     10 C         143.2078  140.8323  169.7587 C.ar    1  UNL1        0.0378
     11 C         142.7008  140.6904  171.1633 C.ar    1  UNL1        0.1037
     12 N         141.2896  141.0769  171.4938 N.ar    1  UNL1       -0.2062
     13 C         140.3855  141.6052  170.4198 C.ar    1  UNL1        0.2806
     14 O         138.9743  141.9916  170.7504 O.2     1  UNL1       -0.2651
     15 C         140.8926  141.7470  169.0153 C.ar    1  UNL1        0.0735
     16 C         139.9885  142.2753  167.9413 C.ar    1  UNL1        0.0077
     17 C         140.4955  142.4172  166.5368 C.ar    1  UNL1        0.0158
     18 H         143.7370  141.2488  167.0632 H       1  UNL1        0.1659
     19 C         139.5914  142.9455  165.4627 C.ar    1  UNL1        0.0014
     20 C         139.6695  144.3881  165.0591 C.ar    1  UNL1        0.0000
     21 C         138.7654  144.9164  163.9851 C.ar    1  UNL1        0.0000
     22 C         137.7833  144.0022  163.3147 C.ar    1  UNL1        0.0000
     23 C         137.7052  142.5596  163.7183 C.ar    1  UNL1        0.0000
     24 C         138.6093  142.0313  164.7923 C.ar    1  UNL1        0.0000
     25 C         143.9349  142.5983  160.5879 C.3     1  UNL1        0.0991
     26 C         141.5016  144.8327  157.5324 C.3     1  UNL1        0.0613
     27 C         141.1330  144.9066  158.9845 C.3     1  UNL1        0.0249
     28 C         141.9441  144.1618  160.0030 C.3     1  UNL1        0.0728
     29 N         143.1238  143.3431  159.5694 N.3     1  UNL1       -0.2689
     30 C         143.4924  143.2692  158.1173 C.3     1  UNL1        0.0728
     31 C         142.6814  144.0140  157.0988 C.3     1  UNL1        0.0249
     32 C         139.8006  147.3580  155.1252 C.ar    1  UNL1        0.1639
     33 N         139.0843  146.0893  154.7678 N.ar    1  UNL1       -0.1293
     34 N         139.6343  144.9890  155.6261 N.ar    1  UNL1       -0.1336
     35 C         140.6905  145.5775  156.5139 C.ar    1  UNL1        0.1396
     36 N         140.7933  147.0416  156.2043 N.ar    1  UNL1       -0.3246
     37 H         141.4049  147.6824  156.6339 H       1  UNL1        0.1686
     38 O         138.8600  152.7509  152.6692 O.2     1  UNL1       -0.2726
     39 C         139.0951  151.4027  153.2832 C.2     1  UNL1        0.2500
     40 C         138.7110  151.1517  154.7113 C.3     1  UNL1        0.1133
     41 C         138.9462  149.8034  155.3252 C.2     1  UNL1       -0.0121
     42 C         139.5654  148.7062  154.5112 C.2     1  UNL1        0.0485
     43 C         139.9495  148.9572  153.0831 C.2     1  UNL1        0.0913
     44 N         139.7143  150.3055  152.4691 N.am    1  UNL1       -0.1775
@<TRIPOS>BOND
     1    38    39    2
     2    39    40    1
     3    40    41    1
     4    41    42    2
     5    42    32    1
     6    32    33   ar
     7    33    34   ar
     8    34    35   ar
     9    35    26    1
    10    26    27    1
    11    27    28    1
    12    28    29    1
    13    29    25    1
    14    25     1    1
    15     1     2   ar
    16     2     3   ar
    17     3     4   ar
    18     4     7    1
    19     7     8   ar
    20     8     9   ar
    21     9    10   ar
    22    10    11   ar
    23    11    12   ar
    24    12    13   ar
    25    13    14    2
    26    13    15   ar
    27    15    16   ar
    28    16    17   ar
    29    17    19    1
    30    19    20   ar
    31    20    21   ar
    32    21    22   ar
    33    22    23   ar
    34    23    24   ar
    35     4     5   ar
    36     5     6   ar
    37    29    30    1
    38    30    31    1
    39    35    36   ar
    40    42    43    1
    41    43    44    2
    42    44    39    1
    43    36    32   ar
    44    31    26    1
    45     6     1   ar
    46    17     7   ar
    47    24    19   ar
    48    15     9    1
    49     8    18    1
    50    36    37    1
@<TRIPOS>MOLECULE
*****
 44 50 0 0 0
SMALL
GASTEIGER

@<TRIPOS>ATOM
      1 C         139.7859  140.5903  161.8665 C.ar    1  UNL1       -0.0061
      2 C         140.0638  139.5073  162.8663 C.ar    1  UNL1       -0.0029
      3 C         140.5440  139.8622  164.2424 C.ar    1  UNL1        0.0011
      4 C         140.7462  141.3001  164.6186 C.ar    1  UNL1        0.0156
      5 C         140.4682  142.3831  163.6187 C.ar    1  UNL1        0.0011
      6 C         139.9881  142.0283  162.2427 C.ar    1  UNL1       -0.0029
      7 C         141.2263  141.6549  165.9947 C.ar    1  UNL1        0.0565
      8 N         140.2650  141.6609  167.1461 N.ar    1  UNL1       -0.3530
      9 C         140.7452  142.0157  168.5222 C.ar    1  UNL1        0.0628
     10 C         139.7839  142.0217  169.6736 C.ar    1  UNL1        0.0378
     11 C         140.2641  142.3765  171.0497 C.ar    1  UNL1        0.1037
     12 N         141.7056  142.7254  171.2742 N.ar    1  UNL1       -0.2062
     13 C         142.6669  142.7194  170.1228 C.ar    1  UNL1        0.2806
     14 O         144.1083  143.0683  170.3474 O.2     1  UNL1       -0.2651
     15 C         142.1867  142.3646  168.7468 C.ar    1  UNL1        0.0735
     16 C         143.1480  142.3586  167.5953 C.ar    1  UNL1        0.0077
     17 C         142.6678  142.0038  166.2193 C.ar    1  UNL1        0.0158
     18 H         139.3189  141.4319  166.9987 H       1  UNL1        0.1659
     19 C         143.6291  141.9978  165.0677 C.ar    1  UNL1        0.0014
     20 C         144.3449  140.7335  164.6949 C.ar    1  UNL1        0.0000
     21 C         145.3062  140.7274  163.5435 C.ar    1  UNL1        0.0000
     22 C         145.5516  141.9858  162.7648 C.ar    1  UNL1        0.0000
     23 C         144.8358  143.2501  163.1377 C.ar    1  UNL1        0.0000
     24 C         143.8746  143.2561  164.2891 C.ar    1  UNL1        0.0000
     25 C         139.3057  140.2355  160.4904 C.3     1  UNL1        0.0991
     26 C         141.7894  137.5577  157.8616 C.3     1  UNL1        0.0613
     27 C         142.3959  138.1805  159.0841 C.3     1  UNL1        0.0249
     28 C         141.5679  139.0731  159.9604 C.3     1  UNL1        0.0728
     29 N         140.1336  139.3429  159.6141 N.3     1  UNL1       -0.2689
     30 C         139.5272  138.7202  158.3917 C.3     1  UNL1        0.0728
     31 C         140.3550  137.8276  157.5154 C.3     1  UNL1        0.0249
     32 C         143.4945  134.6980  155.8666 C.ar    1  UNL1        0.1639
     33 N         144.2882  135.8851  155.4072 N.ar    1  UNL1       -0.1293
     34 N         143.7460  137.1008  156.0987 N.ar    1  UNL1       -0.1336
     35 C         142.6173  136.6651  156.9854 C.ar    1  UNL1        0.1396
     36 N         142.4619  135.1801  156.8419 N.ar    1  UNL1       -0.3246
     37 H         141.7985  134.6202  157.3064 H       1  UNL1        0.1686
     38 O         144.3076  129.0185  154.1110 O.2     1  UNL1       -0.2726
     39 C         144.1043  130.4383  154.5499 C.2     1  UNL1        0.2500
     40 C         144.8314  130.9630  155.7525 C.3     1  UNL1        0.1133
     41 C         144.6281  132.3829  156.1913 C.2     1  UNL1       -0.0121
     42 C         143.6977  133.2781  155.4277 C.2     1  UNL1        0.0485
     43 C         142.9707  132.7534  154.2252 C.2     1  UNL1        0.0913
     44 N         143.1740  131.3335  153.7863 N.am    1  UNL1       -0.1775
@<TRIPOS>BOND
     1    38    39    2
     2    39    40    1
     3    40    41    1
     4    41    42    2
     5    42    32    1
     6    32    33   ar
     7    33    34   ar
     8    34    35   ar
     9    35    26    1
    10    26    27    1
    11    27    28    1
    12    28    29    1
    13    29    25    1
    14    25     1    1
    15     1     2   ar
    16     2     3   ar
    17     3     4   ar
    18     4     7    1
    19     7     8   ar
    20     8     9   ar
    21     9    10   ar
    22    10    11   ar
    23    11    12   ar
    24    12    13   ar
    25    13    14    2
    26    13    15   ar
    27    15    16   ar
    28    16    17   ar
    29    17    19    1
    30    19    20   ar
    31    20    21   ar
    32    21    22   ar
    33    22    23   ar
    34    23    24   ar
    35     4     5   ar
    36     5     6   ar
    37    29    30    1
    38    30    31    1
    39    35    36   ar
    40    42    43    1
    41    43    44    2
    42    44    39    1
    43    36    32   ar
    44    31    26    1
    45     6     1   ar
    46    17     7   ar
    47    24    19   ar
    48    15     9    1
    49     8    18    1
    50    36    37    1
@<TRIPOS>MOLECULE
*****
 44 50 0 0 0
SMALL
GASTEIGER

@<TRIPOS>ATOM
      1 C         139.7463  139.0890  162.2169 C.ar    1  UNL1       -0.0061
      2 C         141.0664  139.6228  162.6885 C.ar    1  UNL1       -0.0029
      3 C         141.1716  140.2843  164.0306 C.ar    1  UNL1        0.0011
      4 C         139.9568  140.4119  164.9012 C.ar    1  UNL1        0.0156
      5 C         138.6368  139.8781  164.4297 C.ar    1  UNL1        0.0011
      6 C         138.5315  139.2167  163.0875 C.ar    1  UNL1       -0.0029
      7 C         140.0622  141.0734  166.2434 C.ar    1  UNL1        0.0565
      8 N         140.3072  140.2459  167.4702 N.ar    1  UNL1       -0.3530
      9 C         140.4125  140.9074  168.8124 C.ar    1  UNL1        0.0628
     10 C         140.6575  140.0799  170.0392 C.ar    1  UNL1        0.0378
     11 C         140.7628  140.7414  171.3813 C.ar    1  UNL1        0.1037
     12 N         140.6231  142.2304  171.4966 N.ar    1  UNL1       -0.2062
     13 C         140.3781  143.0579  170.2698 C.ar    1  UNL1        0.2806
     14 O         140.2384  144.5469  170.3851 O.2     1  UNL1       -0.2651
     15 C         140.2728  142.3964  168.9277 C.ar    1  UNL1        0.0735
     16 C         140.0278  143.2240  167.7008 C.ar    1  UNL1        0.0077
     17 C         139.9225  142.5624  166.3587 C.ar    1  UNL1        0.0158
     18 H         140.3988  139.2686  167.3945 H       1  UNL1        0.1659
     19 C         139.6775  143.3900  165.1318 C.ar    1  UNL1        0.0014
     20 C         140.8271  144.0523  164.4320 C.ar    1  UNL1        0.0000
     21 C         140.5822  144.8798  163.2051 C.ar    1  UNL1        0.0000
     22 C         139.1876  145.0450  162.6781 C.ar    1  UNL1        0.0000
     23 C         138.0380  144.3827  163.3779 C.ar    1  UNL1        0.0000
     24 C         138.2829  143.5552  164.6047 C.ar    1  UNL1        0.0000
     25 C         139.6410  138.4275  160.8747 C.3     1  UNL1        0.0991
     26 C         142.2235  139.8293  157.4666 C.3     1  UNL1        0.0613
     27 C         140.9639  140.5693  157.8067 C.3     1  UNL1        0.0249
     28 C         140.1030  140.1020  158.9428 C.3     1  UNL1        0.0728
     29 N         140.5018  138.8948  159.7387 N.3     1  UNL1       -0.2689
     30 C         141.7614  138.1547  159.3986 C.3     1  UNL1        0.0728
     31 C         142.6223  138.6220  158.2626 C.3     1  UNL1        0.0249
     32 C         145.0051  141.0243  155.0376 C.ar    1  UNL1        0.1639
     33 N         143.8131  141.0067  154.1271 N.ar    1  UNL1       -0.1293
     34 N         142.6261  140.5569  154.9262 N.ar    1  UNL1       -0.1336
     35 C         143.0843  140.2965  156.3306 C.ar    1  UNL1        0.1396
     36 N         144.5546  140.5854  156.3994 N.ar    1  UNL1       -0.3246
     37 H         145.1241  140.5016  157.1982 H       1  UNL1        0.1686
     38 O         150.5934  142.5777  153.5020 O.2     1  UNL1       -0.2726
     39 C         149.1963  142.1894  153.8859 C.2     1  UNL1        0.2500
     40 C         148.1553  141.9886  152.8247 C.3     1  UNL1        0.1133
     41 C         146.7582  141.6002  153.2087 C.2     1  UNL1       -0.0121
     42 C         146.4021  141.4127  154.6537 C.2     1  UNL1        0.0485
     43 C         147.4432  141.6134  155.7148 C.2     1  UNL1        0.0913
     44 N         148.8403  142.0018  155.3309 N.am    1  UNL1       -0.1775
@<TRIPOS>BOND
     1    38    39    2
     2    39    40    1
     3    40    41    1
     4    41    42    2
     5    42    32    1
     6    32    33   ar
     7    33    34   ar
     8    34    35   ar
     9    35    26    1
    10    26    27    1
    11    27    28    1
    12    28    29    1
    13    29    25    1
    14    25     1    1
    15     1     2   ar
    16     2     3   ar
    17     3     4   ar
    18     4     7    1
    19     7     8   ar
    20     8     9   ar
    21     9    10   ar
    22    10    11   ar
    23    11    12   ar
    24    12    13   ar
    25    13    14    2
    26    13    15   ar
    27    15    16   ar
    28    16    17   ar
    29    17    19    1
    30    19    20   ar
    31    20    21   ar
    32    21    22   ar
    33    22    23   ar
    34    23    24   ar
    35     4     5   ar
    36     5     6   ar
    37    29    30    1
    38    30    31    1
    39    35    36   ar
    40    42    43    1
    41    43    44    2
    42    44    39    1
    43    36    32   ar
    44    31    26    1
    45     6     1   ar
    46    17     7   ar
    47    24    19   ar
    48    15     9    1
    49     8    18    1
    50    36    37    1
@<TRIPOS>MOLECULE
*****
 44 50 0 0 0
SMALL
GASTEIGER

@<TRIPOS>ATOM
      1 C         143.4880  141.8391  162.2664 C.ar    1  UNL1       -0.0061
      2 C         144.2876  141.0591  163.2674 C.ar    1  UNL1       -0.0029
      3 C         143.7569  140.8540  164.6553 C.ar    1  UNL1        0.0011
      4 C         142.4266  141.4290  165.0421 C.ar    1  UNL1        0.0156
      5 C         141.6270  142.2090  164.0411 C.ar    1  UNL1        0.0011
      6 C         142.1577  142.4141  162.6532 C.ar    1  UNL1       -0.0029
      7 C         141.8959  141.2239  166.4301 C.ar    1  UNL1        0.0565
      8 N         142.4029  142.0707  167.5596 N.ar    1  UNL1       -0.3530
      9 C         141.8722  141.8656  168.9476 C.ar    1  UNL1        0.0628
     10 C         142.3791  142.7124  170.0771 C.ar    1  UNL1        0.0378
     11 C         141.8484  142.5072  171.4650 C.ar    1  UNL1        0.1037
     12 N         140.8108  141.4553  171.7233 N.ar    1  UNL1       -0.2062
     13 C         140.3038  140.6085  170.5938 C.ar    1  UNL1        0.2806
     14 O         139.2662  139.5566  170.8521 O.2     1  UNL1       -0.2651
     15 C         140.8345  140.8136  169.2059 C.ar    1  UNL1        0.0735
     16 C         140.3276  139.9668  168.0763 C.ar    1  UNL1        0.0077
     17 C         140.8583  140.1720  166.6884 C.ar    1  UNL1        0.0158
     18 H         143.0839  142.7611  167.3900 H       1  UNL1        0.1659
     19 C         140.3513  139.3251  165.5588 C.ar    1  UNL1        0.0014
     20 C         139.0462  139.6584  164.8988 C.ar    1  UNL1        0.0000
     21 C         138.5392  138.8116  163.7693 C.ar    1  UNL1        0.0000
     22 C         139.3374  137.6317  163.2997 C.ar    1  UNL1        0.0000
     23 C         140.6425  137.2984  163.9596 C.ar    1  UNL1        0.0000
     24 C         141.1495  138.1452  165.0892 C.ar    1  UNL1        0.0000
     25 C         144.0187  142.0442  160.8784 C.3     1  UNL1        0.0991
     26 C         143.2591  138.9515  157.6991 C.3     1  UNL1        0.0613
     27 C         143.8422  140.2823  157.3267 C.3     1  UNL1        0.0249
     28 C         144.0954  141.3133  158.3865 C.3     1  UNL1        0.0728
     29 N         143.7655  141.0133  159.8187 N.3     1  UNL1       -0.2689
     30 C         143.1823  139.6824  160.1911 C.3     1  UNL1        0.0728
     31 C         142.9291  138.6515  159.1314 C.3     1  UNL1        0.0249
     32 C         142.6227  135.7958  155.5309 C.ar    1  UNL1        0.1639
     33 N         142.6097  136.8725  154.4865 N.ar    1  UNL1       -0.1293
     34 N         142.8465  138.1856  155.1716 N.ar    1  UNL1       -0.1336
     35 C         143.0058  137.9206  156.6394 C.ar    1  UNL1        0.1396
     36 N         142.8675  136.4436  156.8614 N.ar    1  UNL1       -0.3246
     37 H         142.9270  135.9806  157.7282 H       1  UNL1        0.1686
     38 O         141.8337  129.9281  154.5569 O.2     1  UNL1       -0.2726
     39 C         142.0310  131.3950  154.8004 C.2     1  UNL1        0.2500
     40 C         141.8545  132.3723  153.6761 C.3     1  UNL1        0.1133
     41 C         142.0517  133.8392  153.9197 C.2     1  UNL1       -0.0121
     42 C         142.4254  134.3288  155.2874 C.2     1  UNL1        0.0485
     43 C         142.6019  133.3516  156.4115 C.2     1  UNL1        0.0913
     44 N         142.4047  131.8847  156.1680 N.am    1  UNL1       -0.1775
@<TRIPOS>BOND
     1    38    39    2
     2    39    40    1
     3    40    41    1
     4    41    42    2
     5    42    32    1
     6    32    33   ar
     7    33    34   ar
     8    34    35   ar
     9    35    26    1
    10    26    27    1
    11    27    28    1
    12    28    29    1
    13    29    25    1
    14    25     1    1
    15     1     2   ar
    16     2     3   ar
    17     3     4   ar
    18     4     7    1
    19     7     8   ar
    20     8     9   ar
    21     9    10   ar
    22    10    11   ar
    23    11    12   ar
    24    12    13   ar
    25    13    14    2
    26    13    15   ar
    27    15    16   ar
    28    16    17   ar
    29    17    19    1
    30    19    20   ar
    31    20    21   ar
    32    21    22   ar
    33    22    23   ar
    34    23    24   ar
    35     4     5   ar
    36     5     6   ar
    37    29    30    1
    38    30    31    1
    39    35    36   ar
    40    42    43    1
    41    43    44    2
    42    44    39    1
    43    36    32   ar
    44    31    26    1
    45     6     1   ar
    46    17     7   ar
    47    24    19   ar
    48    15     9    1
    49     8    18    1
    50    36    37    1
@<TRIPOS>MOLECULE
*****
 44 50 0 0 0
SMALL
GASTEIGER

@<TRIPOS>ATOM
      1 C         141.5407  138.7712  162.2000 C.ar    1  UNL1       -0.0061
      2 C         142.5841  138.2984  163.1683 C.ar    1  UNL1       -0.0029
      3 C         142.6765  138.9160  164.5321 C.ar    1  UNL1        0.0011
      4 C         141.7255  140.0065  164.9276 C.ar    1  UNL1        0.0156
      5 C         140.6821  140.4793  163.9593 C.ar    1  UNL1        0.0011
      6 C         140.5897  139.8617  162.5955 C.ar    1  UNL1       -0.0029
      7 C         141.8180  140.6241  166.2915 C.ar    1  UNL1        0.0565
      8 N         141.2071  139.9295  167.4723 N.ar    1  UNL1       -0.3530
      9 C         141.2996  140.5471  168.8362 C.ar    1  UNL1        0.0628
     10 C         140.6887  139.8525  170.0170 C.ar    1  UNL1        0.0378
     11 C         140.7812  140.4701  171.3808 C.ar    1  UNL1        0.1037
     12 N         141.4845  141.7823  171.5637 N.ar    1  UNL1       -0.2062
     13 C         142.0954  142.4769  170.3829 C.ar    1  UNL1        0.2806
     14 O         142.7987  143.7891  170.5659 O.2     1  UNL1       -0.2651
     15 C         142.0029  141.8593  169.0191 C.ar    1  UNL1        0.0735
     16 C         142.6138  142.5539  167.8382 C.ar    1  UNL1        0.0077
     17 C         142.5213  141.9363  166.4744 C.ar    1  UNL1        0.0158
     18 H         140.7455  139.0683  167.3522 H       1  UNL1        0.1659
     19 C         143.1322  142.6308  165.2935 C.ar    1  UNL1        0.0014
     20 C         144.4676  142.1896  164.7722 C.ar    1  UNL1        0.0000
     21 C         145.0785  142.8841  163.5913 C.ar    1  UNL1        0.0000
     22 C         144.3539  144.0199  162.9319 C.ar    1  UNL1        0.0000
     23 C         143.0185  144.4611  163.4532 C.ar    1  UNL1        0.0000
     24 C         142.4076  143.7666  164.6341 C.ar    1  UNL1        0.0000
     25 C         141.4483  138.1536  160.8361 C.3     1  UNL1        0.0991
     26 C         143.8168  139.8774  157.4203 C.3     1  UNL1        0.0613
     27 C         142.9333  138.6864  157.1946 C.3     1  UNL1        0.0249
     28 C         142.1438  138.1118  158.3333 C.3     1  UNL1        0.0728
     29 N         142.2378  138.7282  159.6975 N.3     1  UNL1       -0.2689
     30 C         143.1213  139.9192  159.9232 C.3     1  UNL1        0.0728
     31 C         143.9108  140.4938  158.7846 C.3     1  UNL1        0.0249
     32 C         146.4331  141.3545  154.9630 C.ar    1  UNL1        0.1639
     33 N         145.2096  141.3180  154.0960 N.ar    1  UNL1       -0.1293
     34 N         144.0806  140.7602  154.9110 N.ar    1  UNL1       -0.1336
     35 C         144.6064  140.4520  156.2817 C.ar    1  UNL1        0.1396
     36 N         146.0603  140.8194  156.3138 N.ar    1  UNL1       -0.3246
     37 H         146.6639  140.7257  157.0859 H       1  UNL1        0.1686
     38 O         151.8650  143.3001  153.3167 O.2     1  UNL1       -0.2726
     39 C         150.5071  142.8137  153.7283 C.2     1  UNL1        0.2500
     40 C         150.3612  141.9195  154.9239 C.3     1  UNL1        0.1133
     41 C         149.0032  141.4332  155.3354 C.2     1  UNL1       -0.0121
     42 C         147.7911  141.8409  154.5514 C.2     1  UNL1        0.0485
     43 C         147.9370  142.7350  153.3559 C.2     1  UNL1        0.0913
     44 N         149.2949  143.2214  152.9444 N.am    1  UNL1       -0.1775
@<TRIPOS>BOND
     1    38    39    2
     2    39    40    1
     3    40    41    1
     4    41    42    2
     5    42    32    1
     6    32    33   ar
     7    33    34   ar
     8    34    35   ar
     9    35    26    1
    10    26    27    1
    11    27    28    1
    12    28    29    1
    13    29    25    1
    14    25     1    1
    15     1     2   ar
    16     2     3   ar
    17     3     4   ar
    18     4     7    1
    19     7     8   ar
    20     8     9   ar
    21     9    10   ar
    22    10    11   ar
    23    11    12   ar
    24    12    13   ar
    25    13    14    2
    26    13    15   ar
    27    15    16   ar
    28    16    17   ar
    29    17    19    1
    30    19    20   ar
    31    20    21   ar
    32    21    22   ar
    33    22    23   ar
    34    23    24   ar
    35     4     5   ar
    36     5     6   ar
    37    29    30    1
    38    30    31    1
    39    35    36   ar
    40    42    43    1
    41    43    44    2
    42    44    39    1
    43    36    32   ar
    44    31    26    1
    45     6     1   ar
    46    17     7   ar
    47    24    19   ar
    48    15     9    1
    49     8    18    1
    50    36    37    1
@<TRIPOS>MOLECULE
*****
 44 50 0 0 0
SMALL
GASTEIGER

@<TRIPOS>ATOM
      1 C         143.2515  141.5045  161.8300 C.ar    1  UNL1       -0.0061
      2 C         143.9740  142.3907  162.8009 C.ar    1  UNL1       -0.0029
      3 C         143.5051  142.4848  164.2225 C.ar    1  UNL1        0.0011
      4 C         142.3136  141.6928  164.6734 C.ar    1  UNL1        0.0156
      5 C         141.5911  140.8067  163.7025 C.ar    1  UNL1        0.0011
      6 C         142.0600  140.7125  162.2808 C.ar    1  UNL1       -0.0029
      7 C         141.8448  141.7870  166.0951 C.ar    1  UNL1        0.0565
      8 N         142.6418  141.1452  167.1918 N.ar    1  UNL1       -0.3530
      9 C         142.1729  141.2394  168.6136 C.ar    1  UNL1        0.0628
     10 C         142.9699  140.5975  169.7102 C.ar    1  UNL1        0.0378
     11 C         142.5010  140.6917  171.1319 C.ar    1  UNL1        0.1037
     12 N         141.2351  141.4278  171.4569 N.ar    1  UNL1       -0.2062
     13 C         140.4381  142.0696  170.3602 C.ar    1  UNL1        0.2806
     14 O         139.1721  142.8057  170.6852 O.2     1  UNL1       -0.2651
     15 C         140.9070  141.9754  168.9386 C.ar    1  UNL1        0.0735
     16 C         140.1099  142.6173  167.8418 C.ar    1  UNL1        0.0077
     17 C         140.5788  142.5231  166.4201 C.ar    1  UNL1        0.0158
     18 H         143.4726  140.6621  166.9785 H       1  UNL1        0.1659
     19 C         139.7818  143.1650  165.3234 C.ar    1  UNL1        0.0014
     20 C         138.4856  142.5530  164.8815 C.ar    1  UNL1        0.0000
     21 C         137.6885  143.1948  163.7848 C.ar    1  UNL1        0.0000
     22 C         138.1877  144.4486  163.1300 C.ar    1  UNL1        0.0000
     23 C         139.4840  145.0605  163.5719 C.ar    1  UNL1        0.0000
     24 C         140.2810  144.4187  164.6686 C.ar    1  UNL1        0.0000
     25 C         143.7203  141.4103  160.4082 C.3     1  UNL1        0.0991
     26 C         142.7826  137.7477  157.9678 C.3     1  UNL1        0.0613
     27 C         142.9576  137.6346  159.4532 C.3     1  UNL1        0.0249
     28 C         143.2702  138.8555  160.2667 C.3     1  UNL1        0.0728
     29 N         143.4078  140.1895  159.5947 N.3     1  UNL1       -0.2689
     30 C         143.2328  140.3026  158.1093 C.3     1  UNL1        0.0728
     31 C         142.9202  139.0818  157.2958 C.3     1  UNL1        0.0249
     32 C         142.5455  134.2786  156.2433 C.ar    1  UNL1        0.1639
     33 N         141.4326  135.0178  155.5615 N.ar    1  UNL1       -0.1293
     34 N         141.3860  136.4074  156.1244 N.ar    1  UNL1       -0.1336
     35 C         142.4701  136.5269  157.1543 C.ar    1  UNL1        0.1396
     36 N         143.1867  135.2112  157.2277 N.ar    1  UNL1       -0.3246
     37 H         143.9448  134.9974  157.8183 H       1  UNL1        0.1686
     38 O         144.1507  128.5896  155.2139 O.2     1  UNL1       -0.2726
     39 C         143.7494  130.0118  155.4713 C.2     1  UNL1        0.2500
     40 C         144.7902  131.0324  155.8256 C.3     1  UNL1        0.1133
     41 C         144.3888  132.4546  156.0829 C.2     1  UNL1       -0.0121
     42 C         142.9468  132.8563  155.9860 C.2     1  UNL1        0.0485
     43 C         141.9062  131.8358  155.6318 C.2     1  UNL1        0.0913
     44 N         142.3075  130.4135  155.3744 N.am    1  UNL1       -0.1775
@<TRIPOS>BOND
     1    38    39    2
     2    39    40    1
     3    40    41    1
     4    41    42    2
     5    42    32    1
     6    32    33   ar
     7    33    34   ar
     8    34    35   ar
     9    35    26    1
    10    26    27    1
    11    27    28    1
    12    28    29    1
    13    29    25    1
    14    25     1    1
    15     1     2   ar
    16     2     3   ar
    17     3     4   ar
    18     4     7    1
    19     7     8   ar
    20     8     9   ar
    21     9    10   ar
    22    10    11   ar
    23    11    12   ar
    24    12    13   ar
    25    13    14    2
    26    13    15   ar
    27    15    16   ar
    28    16    17   ar
    29    17    19    1
    30    19    20   ar
    31    20    21   ar
    32    21    22   ar
    33    22    23   ar
    34    23    24   ar
    35     4     5   ar
    36     5     6   ar
    37    29    30    1
    38    30    31    1
    39    35    36   ar
    40    42    43    1
    41    43    44    2
    42    44    39    1
    43    36    32   ar
    44    31    26    1
    45     6     1   ar
    46    17     7   ar
    47    24    19   ar
    48    15     9    1
    49     8    18    1
    50    36    37    1
@<TRIPOS>MOLECULE
*****
 44 50 0 0 0
SMALL
GASTEIGER

@<TRIPOS>ATOM
      1 C         142.4347  140.2803  161.9211 C.ar    1  UNL1       -0.0061
      2 C         143.1589  141.4408  162.5366 C.ar    1  UNL1       -0.0029
      3 C         142.8632  141.8446  163.9506 C.ar    1  UNL1        0.0011
      4 C         141.8434  141.0879  164.7491 C.ar    1  UNL1        0.0156
      5 C         141.1192  139.9275  164.1335 C.ar    1  UNL1        0.0011
      6 C         141.4149  139.5237  162.7195 C.ar    1  UNL1       -0.0029
      7 C         141.5477  141.4918  166.1632 C.ar    1  UNL1        0.0565
      8 N         142.3032  140.8631  167.2963 N.ar    1  UNL1       -0.3530
      9 C         142.0075  141.2670  168.7103 C.ar    1  UNL1        0.0628
     10 C         142.7630  140.6383  169.8434 C.ar    1  UNL1        0.0378
     11 C         142.4673  141.0422  171.2574 C.ar    1  UNL1        0.1037
     12 N         141.4162  142.0747  171.5383 N.ar    1  UNL1       -0.2062
     13 C         140.6607  142.7034  170.4052 C.ar    1  UNL1        0.2806
     14 O         139.6096  143.7360  170.6861 O.2     1  UNL1       -0.2651
     15 C         140.9564  142.2995  168.9912 C.ar    1  UNL1        0.0735
     16 C         140.2009  142.9282  167.8580 C.ar    1  UNL1        0.0077
     17 C         140.4966  142.5244  166.4441 C.ar    1  UNL1        0.0158
     18 H         142.9931  140.1854  167.1119 H       1  UNL1        0.1659
     19 C         139.7411  143.1531  165.3109 C.ar    1  UNL1        0.0014
     20 C         138.4802  142.5167  164.8056 C.ar    1  UNL1        0.0000
     21 C         137.7247  143.1453  163.6725 C.ar    1  UNL1        0.0000
     22 C         138.2301  144.4103  163.0446 C.ar    1  UNL1        0.0000
     23 C         139.4910  145.0467  163.5499 C.ar    1  UNL1        0.0000
     24 C         140.2464  144.4181  164.6830 C.ar    1  UNL1        0.0000
     25 C         142.7304  139.8765  160.5070 C.3     1  UNL1        0.0991
     26 C         139.3963  139.6233  157.4954 C.3     1  UNL1        0.0613
     27 C         140.0417  138.3696  158.0070 C.3     1  UNL1        0.0249
     28 C         141.1531  138.4540  159.0109 C.3     1  UNL1        0.0728
     29 N         141.6190  139.7921  159.5031 N.3     1  UNL1       -0.2689
     30 C         140.9737  141.0458  158.9915 C.3     1  UNL1        0.0728
     31 C         139.8624  140.9615  157.9877 C.3     1  UNL1        0.0249
     32 C         136.2225  139.9759  155.2891 C.ar    1  UNL1        0.1639
     33 N         136.9270  138.8424  154.6043 N.ar    1  UNL1       -0.1293
     34 N         138.2017  138.5723  155.3475 N.ar    1  UNL1       -0.1336
     35 C         138.2850  139.5390  156.4915 C.ar    1  UNL1        0.1396
     36 N         137.0618  140.4064  156.4554 N.ar    1  UNL1       -0.3246
     37 H         136.8475  141.1311  157.0864 H       1  UNL1        0.1686
     38 O         130.9696  142.3681  153.6503 O.2     1  UNL1       -0.2726
     39 C         132.2829  141.7701  154.0600 C.2     1  UNL1        0.2500
     40 C         132.4547  141.2132  155.4422 C.3     1  UNL1        0.1133
     41 C         133.7680  140.6151  155.8518 C.2     1  UNL1       -0.0121
     42 C         134.9093  140.5740  154.8794 C.2     1  UNL1        0.0485
     43 C         134.7374  141.1308  153.4972 C.2     1  UNL1        0.0913
     44 N         133.4242  141.7289  153.0876 N.am    1  UNL1       -0.1775
@<TRIPOS>BOND
     1    38    39    2
     2    39    40    1
     3    40    41    1
     4    41    42    2
     5    42    32    1
     6    32    33   ar
     7    33    34   ar
     8    34    35   ar
     9    35    26    1
    10    26    27    1
    11    27    28    1
    12    28    29    1
    13    29    25    1
    14    25     1    1
    15     1     2   ar
    16     2     3   ar
    17     3     4   ar
    18     4     7    1
    19     7     8   ar
    20     8     9   ar
    21     9    10   ar
    22    10    11   ar
    23    11    12   ar
    24    12    13   ar
    25    13    14    2
    26    13    15   ar
    27    15    16   ar
    28    16    17   ar
    29    17    19    1
    30    19    20   ar
    31    20    21   ar
    32    21    22   ar
    33    22    23   ar
    34    23    24   ar
    35     4     5   ar
    36     5     6   ar
    37    29    30    1
    38    30    31    1
    39    35    36   ar
    40    42    43    1
    41    43    44    2
    42    44    39    1
    43    36    32   ar
    44    31    26    1
    45     6     1   ar
    46    17     7   ar
    47    24    19   ar
    48    15     9    1
    49     8    18    1
    50    36    37    1
@<TRIPOS>MOLECULE
*****
 44 50 0 0 0
SMALL
GASTEIGER

@<TRIPOS>ATOM
      1 C         139.2457  141.6853  161.7744 C.ar    1  UNL1       -0.0061
      2 C         138.9887  142.9155  162.5932 C.ar    1  UNL1       -0.0029
      3 C         139.6156  143.0590  163.9483 C.ar    1  UNL1        0.0011
      4 C         140.4995  141.9723  164.4847 C.ar    1  UNL1        0.0156
      5 C         140.7565  140.7420  163.6660 C.ar    1  UNL1        0.0011
      6 C         140.1296  140.5985  162.3108 C.ar    1  UNL1       -0.0029
      7 C         141.1263  142.1158  165.8399 C.ar    1  UNL1        0.0565
      8 N         140.2706  142.0686  167.0709 N.ar    1  UNL1       -0.3530
      9 C         140.8975  142.2122  168.4261 C.ar    1  UNL1        0.0628
     10 C         140.0417  142.1650  169.6571 C.ar    1  UNL1        0.0378
     11 C         140.6686  142.3085  171.0122 C.ar    1  UNL1        0.1037
     12 N         142.1512  142.4993  171.1363 N.ar    1  UNL1       -0.2062
     13 C         143.0070  142.5465  169.9053 C.ar    1  UNL1        0.2806
     14 O         144.4896  142.7372  170.0294 O.2     1  UNL1       -0.2651
     15 C         142.3801  142.4029  168.5502 C.ar    1  UNL1        0.0735
     16 C         143.2359  142.4501  167.3191 C.ar    1  UNL1        0.0077
     17 C         142.6090  142.3066  165.9640 C.ar    1  UNL1        0.0158
     18 H         139.2975  141.9434  166.9894 H       1  UNL1        0.1659
     19 C         143.4647  142.3537  164.7329 C.ar    1  UNL1        0.0014
     20 C         143.4743  143.5826  163.8728 C.ar    1  UNL1        0.0000
     21 C         144.3300  143.6299  162.6418 C.ar    1  UNL1        0.0000
     22 C         145.1761  142.4482  162.2708 C.ar    1  UNL1        0.0000
     23 C         145.1666  141.2193  163.1309 C.ar    1  UNL1        0.0000
     24 C         144.3109  141.1721  164.3619 C.ar    1  UNL1        0.0000
     25 C         138.6188  141.5417  160.4192 C.3     1  UNL1        0.0991
     26 C         139.5189  144.5479  157.1940 C.3     1  UNL1        0.0613
     27 C         140.1729  144.6717  158.5382 C.3     1  UNL1        0.0249
     28 C         139.8728  143.6695  159.6133 C.3     1  UNL1        0.0728
     29 N         138.9189  142.5438  159.3442 N.3     1  UNL1       -0.2689
     30 C         138.2649  142.4200  157.9999 C.3     1  UNL1        0.0728
     31 C         138.5649  143.4221  156.9248 C.3     1  UNL1        0.0249
     32 C         139.8505  147.5968  154.8149 C.ar    1  UNL1        0.1639
     33 N         140.7107  146.5873  154.1141 N.ar    1  UNL1       -0.1293
     34 N         140.6912  145.3224  154.9200 N.ar    1  UNL1       -0.1336
     35 C         139.8189  145.5500  156.1189 C.ar    1  UNL1        0.1396
     36 N         139.2994  146.9556  156.0540 N.ar    1  UNL1       -0.3246
     37 H         138.7016  147.3825  156.7095 H       1  UNL1        0.1686
     38 O         138.7989  153.2129  152.9836 O.2     1  UNL1       -0.2726
     39 C         139.0618  151.8089  153.4415 C.2     1  UNL1        0.2500
     40 C         138.7267  151.4029  154.8461 C.3     1  UNL1        0.1133
     41 C         138.9896  149.9988  155.3039 C.2     1  UNL1       -0.0121
     42 C         139.5876  149.0008  154.3571 C.2     1  UNL1        0.0485
     43 C         139.9226  149.4068  152.9525 C.2     1  UNL1        0.0913
     44 N         139.6597  150.8108  152.4947 N.am    1  UNL1       -0.1775
@<TRIPOS>BOND
     1    38    39    2
     2    39    40    1
     3    40    41    1
     4    41    42    2
     5    42    32    1
     6    32    33   ar
     7    33    34   ar
     8    34    35   ar
     9    35    26    1
    10    26    27    1
    11    27    28    1
    12    28    29    1
    13    29    25    1
    14    25     1    1
    15     1     2   ar
    16     2     3   ar
    17     3     4   ar
    18     4     7    1
    19     7     8   ar
    20     8     9   ar
    21     9    10   ar
    22    10    11   ar
    23    11    12   ar
    24    12    13   ar
    25    13    14    2
    26    13    15   ar
    27    15    16   ar
    28    16    17   ar
    29    17    19    1
    30    19    20   ar
    31    20    21   ar
    32    21    22   ar
    33    22    23   ar
    34    23    24   ar
    35     4     5   ar
    36     5     6   ar
    37    29    30    1
    38    30    31    1
    39    35    36   ar
    40    42    43    1
    41    43    44    2
    42    44    39    1
    43    36    32   ar
    44    31    26    1
    45     6     1   ar
    46    17     7   ar
    47    24    19   ar
    48    15     9    1
    49     8    18    1
    50    36    37    1
