@<TRIPOS>MOLECULE
*****
 35 40 0 0 0
SMALL
GASTEIGER

@<TRIPOS>ATOM
      1 C         141.1990  137.4659  164.6295 C.3     1  UNL1        0.0103
      2 C         141.1013  138.5746  163.6238 C.3     1  UNL1        0.0544
      3 C         141.2601  137.4011  162.7032 C.3     1  UNL1        0.0103
      4 C         141.0587  139.2757  162.2984 C.ar    1  UNL1       -0.0148
      5 C         141.1835  138.4873  161.0285 C.ar    1  UNL1       -0.0081
      6 C         141.1409  139.1884  159.7032 C.ar    1  UNL1       -0.0227
      7 C         140.9735  140.6780  159.6477 C.ar    1  UNL1       -0.0042
      8 C         140.8486  141.4664  160.9176 C.ar    1  UNL1        0.0026
      9 C         140.8912  140.7653  162.2430 C.ar    1  UNL1        0.0353
     10 C         140.7663  141.5538  163.5129 C.2     1  UNL1        0.1964
     11 O         140.5988  143.0434  163.4575 O.2     1  UNL1       -0.2865
     12 C         140.8089  140.8527  164.8383 C.2     1  UNL1        0.0539
     13 C         140.9764  139.3631  164.8937 C.2     1  UNL1        0.0647
     14 N         140.9829  138.9508  166.3359 N.2     1  UNL1       -0.2532
     15 C         140.8195  140.1855  167.1718 C.2     1  UNL1        0.0638
     16 C         140.7548  140.3914  168.6563 C.3     1  UNL1        0.0825
     17 C         140.5825  141.7727  169.2150 C.2     1  UNL1        0.0522
     18 C         140.4749  142.9481  168.2894 C.2     1  UNL1        0.0064
     19 C         140.5396  142.7423  166.8050 C.2     1  UNL1        0.0017
     20 C         140.7120  141.3609  166.2462 C.2     1  UNL1        0.0181
     21 C         141.2658  138.3999  158.4332 C.3     1  UNL1        0.0251
     22 C         142.6152  137.9433  157.9635 C.3     1  UNL1        0.0217
     23 C         142.7402  137.1549  156.6936 C.3     1  UNL1        0.0724
     24 N         141.5156  136.8230  155.8933 N.3     1  UNL1       -0.2727
     25 C         140.1662  137.2796  156.3630 C.3     1  UNL1        0.0724
     26 C         140.0413  138.0681  157.6330 C.3     1  UNL1        0.0217
     27 C         141.6405  136.0346  154.6234 C.3     1  UNL1        0.0722
     28 C         141.9506  134.5680  154.6785 C.3     1  UNL1        0.0210
     29 C         142.1311  133.7913  153.4081 C.3     1  UNL1        0.0335
     30 C         142.4412  132.3247  153.4632 C.3     1  UNL1        0.1422
     31 O         142.5708  131.6349  154.7888 O.3     1  UNL1       -0.3538
     32 C         142.3903  132.4116  156.0593 C.3     1  UNL1        0.1422
     33 C         142.0802  133.8781  156.0041 C.3     1  UNL1        0.0335
     34 C         140.5177  141.9786  170.6994 C.1     1  UNL1        0.0965
     35 N         140.4530  142.1845  172.1838 N.1     1  UNL1       -0.1911
@<TRIPOS>BOND
     1     1     2    1
     2     2     3    1
     3     2     4    1
     4     4     5   ar
     5     5     6   ar
     6     6    21    1
     7    21    22    1
     8    22    23    1
     9    23    24    1
    10    24    27    1
    11    27    28    1
    12    28    29    1
    13    29    30    1
    14    30    31    1
    15    31    32    1
    16    32    33    1
    17    24    25    1
    18    25    26    1
    19     6     7   ar
    20     7     8   ar
    21     8     9   ar
    22     9    10    1
    23    10    11    2
    24    10    12    1
    25    12    13    2
    26    13    14    1
    27    14    15    2
    28    15    16    1
    29    16    17    1
    30    17    34    1
    31    34    35    3
    32    17    18    2
    33    18    19    1
    34    19    20    2
    35    13     2    1
    36    20    15    1
    37     9     4   ar
    38    20    12    1
    39    26    21    1
    40    33    28    1
@<TRIPOS>MOLECULE
*****
 35 40 0 0 0
SMALL
GASTEIGER

@<TRIPOS>ATOM
      1 C         141.1880  144.6260  163.7342 C.3     1  UNL1        0.0103
      2 C         140.4685  143.7796  162.7262 C.3     1  UNL1        0.0544
      3 C         140.9479  144.8902  161.8392 C.3     1  UNL1        0.0103
      4 C         139.9155  143.3190  161.4101 C.ar    1  UNL1       -0.0148
      5 C         140.1450  144.1357  160.1730 C.ar    1  UNL1       -0.0081
      6 C         139.5921  143.6750  158.8570 C.ar    1  UNL1       -0.0227
      7 C         138.8095  142.3978  158.7780 C.ar    1  UNL1       -0.0042
      8 C         138.5799  141.5811  160.0151 C.ar    1  UNL1        0.0026
      9 C         139.1329  142.0418  161.3311 C.ar    1  UNL1        0.0353
     10 C         138.9034  141.2251  162.5683 C.2     1  UNL1        0.1964
     11 O         138.1208  139.9479  162.4893 O.2     1  UNL1       -0.2865
     12 C         139.4564  141.6858  163.8843 C.2     1  UNL1        0.0539
     13 C         140.2389  142.9630  163.9633 C.2     1  UNL1        0.0647
     14 N         140.6583  143.1622  165.3896 N.2     1  UNL1       -0.2532
     15 C         140.1350  142.0081  166.1922 C.2     1  UNL1        0.0638
     16 C         140.2389  141.6702  167.6499 C.3     1  UNL1        0.0825
     17 C         139.6000  140.4197  168.1773 C.2     1  UNL1        0.0522
     18 C         138.8572  139.5073  167.2470 C.2     1  UNL1        0.0064
     19 C         138.7532  139.8452  165.7892 C.2     1  UNL1        0.0017
     20 C         139.3922  141.0956  165.2618 C.2     1  UNL1        0.0181
     21 C         139.8216  144.4917  157.6198 C.3     1  UNL1        0.0251
     22 C         140.9813  145.4406  157.5521 C.3     1  UNL1        0.0217
     23 C         141.2109  146.2573  156.3150 C.3     1  UNL1        0.0724
     24 N         140.2807  146.1249  155.1456 N.3     1  UNL1       -0.2727
     25 C         139.1210  145.1760  155.2134 C.3     1  UNL1        0.0724
     26 C         138.8915  144.3593  156.4505 C.3     1  UNL1        0.0217
     27 C         140.5103  146.9415  153.9085 C.3     1  UNL1        0.0722
     28 C         140.0550  148.3699  153.8575 C.3     1  UNL1        0.0210
     29 C         140.3493  149.2081  152.6489 C.3     1  UNL1        0.0335
     30 C         139.8940  150.6365  152.5979 C.3     1  UNL1        0.1422
     31 O         139.1445  151.2265  153.7554 O.3     1  UNL1       -0.3538
     32 C         138.8502  150.3883  154.9640 C.3     1  UNL1        0.1422
     33 C         139.3055  148.9599  155.0150 C.3     1  UNL1        0.0335
     34 C         139.7039  140.0818  169.6350 C.1     1  UNL1        0.0965
     35 N         139.8078  139.7439  171.0928 N.1     1  UNL1       -0.1911
@<TRIPOS>BOND
     1     1     2    1
     2     2     3    1
     3     2     4    1
     4     4     5   ar
     5     5     6   ar
     6     6    21    1
     7    21    22    1
     8    22    23    1
     9    23    24    1
    10    24    27    1
    11    27    28    1
    12    28    29    1
    13    29    30    1
    14    30    31    1
    15    31    32    1
    16    32    33    1
    17    24    25    1
    18    25    26    1
    19     6     7   ar
    20     7     8   ar
    21     8     9   ar
    22     9    10    1
    23    10    11    2
    24    10    12    1
    25    12    13    2
    26    13    14    1
    27    14    15    2
    28    15    16    1
    29    16    17    1
    30    17    34    1
    31    34    35    3
    32    17    18    2
    33    18    19    1
    34    19    20    2
    35    13     2    1
    36    20    15    1
    37     9     4   ar
    38    20    12    1
    39    26    21    1
    40    33    28    1
@<TRIPOS>MOLECULE
*****
 35 40 0 0 0
SMALL
GASTEIGER

@<TRIPOS>ATOM
      1 C         138.9897  144.7503  164.1533 C.3     1  UNL1        0.0103
      2 C         140.0866  144.1546  163.3214 C.3     1  UNL1        0.0544
      3 C         139.3867  144.9764  162.2798 C.3     1  UNL1        0.0103
      4 C         140.9404  143.8442  162.1277 C.ar    1  UNL1       -0.0148
      5 C         140.6215  144.4592  160.7972 C.ar    1  UNL1       -0.0081
      6 C         141.4752  144.1488  159.6037 C.ar    1  UNL1       -0.0227
      7 C         142.6479  143.2236  159.7405 C.ar    1  UNL1       -0.0042
      8 C         142.9668  142.6087  161.0709 C.ar    1  UNL1        0.0026
      9 C         142.1131  142.9190  162.2645 C.ar    1  UNL1        0.0353
     10 C         142.4319  142.3041  163.5951 C.2     1  UNL1        0.1964
     11 O         143.6046  141.3788  163.7319 O.2     1  UNL1       -0.2865
     12 C         141.5782  142.6144  164.7887 C.2     1  UNL1        0.0539
     13 C         140.4055  143.5396  164.6518 C.2     1  UNL1        0.0647
     14 N         139.7494  143.6583  165.9955 N.2     1  UNL1       -0.2532
     15 C         140.5166  142.8064  166.9628 C.2     1  UNL1        0.0638
     16 C         140.3320  142.5348  168.4264 C.3     1  UNL1        0.0825
     17 C         141.2777  141.6180  169.1442 C.2     1  UNL1        0.0522
     18 C         142.4080  140.9729  168.3983 C.2     1  UNL1        0.0064
     19 C         142.5925  141.2445  166.9347 C.2     1  UNL1        0.0017
     20 C         141.6468  142.1612  166.2169 C.2     1  UNL1        0.0181
     21 C         141.1564  144.7638  158.2731 C.3     1  UNL1        0.0251
     22 C         142.1812  145.6039  157.5702 C.3     1  UNL1        0.0217
     23 C         141.8623  146.2188  156.2398 C.3     1  UNL1        0.0724
     24 N         140.5186  145.9936  155.6121 N.3     1  UNL1       -0.2727
     25 C         139.4938  145.1535  156.3150 C.3     1  UNL1        0.0724
     26 C         139.8127  144.5386  157.6455 C.3     1  UNL1        0.0217
     27 C         140.1998  146.6085  154.2816 C.3     1  UNL1        0.0722
     28 C         139.8522  148.0650  154.1925 C.3     1  UNL1        0.0210
     29 C         140.2169  148.8495  152.9672 C.3     1  UNL1        0.0335
     30 C         139.8692  150.3059  152.8780 C.3     1  UNL1        0.1422
     31 O         139.1569  150.9778  154.0143 O.3     1  UNL1       -0.3538
     32 C         138.7922  150.1933  155.2396 C.3     1  UNL1        0.1422
     33 C         139.1399  148.7369  155.3287 C.3     1  UNL1        0.0335
     34 C         141.0932  141.3464  170.6077 C.1     1  UNL1        0.0965
     35 N         140.9087  141.0748  172.0714 N.1     1  UNL1       -0.1911
@<TRIPOS>BOND
     1     1     2    1
     2     2     3    1
     3     2     4    1
     4     4     5   ar
     5     5     6   ar
     6     6    21    1
     7    21    22    1
     8    22    23    1
     9    23    24    1
    10    24    27    1
    11    27    28    1
    12    28    29    1
    13    29    30    1
    14    30    31    1
    15    31    32    1
    16    32    33    1
    17    24    25    1
    18    25    26    1
    19     6     7   ar
    20     7     8   ar
    21     8     9   ar
    22     9    10    1
    23    10    11    2
    24    10    12    1
    25    12    13    2
    26    13    14    1
    27    14    15    2
    28    15    16    1
    29    16    17    1
    30    17    34    1
    31    34    35    3
    32    17    18    2
    33    18    19    1
    34    19    20    2
    35    13     2    1
    36    20    15    1
    37     9     4   ar
    38    20    12    1
    39    26    21    1
    40    33    28    1
@<TRIPOS>MOLECULE
*****
 35 40 0 0 0
SMALL
GASTEIGER

@<TRIPOS>ATOM
      1 C         139.0487  138.3349  164.0027 C.3     1  UNL1        0.0103
      2 C         140.2508  138.8309  163.2550 C.3     1  UNL1        0.0544
      3 C         139.5911  138.0200  162.1791 C.3     1  UNL1        0.0103
      4 C         141.2238  139.0452  162.1336 C.ar    1  UNL1       -0.0148
      5 C         140.9817  138.4066  160.7982 C.ar    1  UNL1       -0.0081
      6 C         141.9547  138.6209  159.6769 C.ar    1  UNL1       -0.0227
      7 C         143.1698  139.4738  159.8911 C.ar    1  UNL1       -0.0042
      8 C         143.4120  140.1124  161.2266 C.ar    1  UNL1        0.0026
      9 C         142.4390  139.8981  162.3478 C.ar    1  UNL1        0.0353
     10 C         142.6811  140.5367  163.6834 C.2     1  UNL1        0.1964
     11 O         143.8963  141.3897  163.8976 O.2     1  UNL1       -0.2865
     12 C         141.7081  140.3224  164.8046 C.2     1  UNL1        0.0539
     13 C         140.4930  139.4695  164.5905 C.2     1  UNL1        0.0647
     14 N         139.7162  139.4389  165.8733 N.2     1  UNL1       -0.2532
     15 C         140.4512  140.2729  166.8803 C.2     1  UNL1        0.0638
     16 C         140.1586  140.6057  168.3134 C.3     1  UNL1        0.0825
     17 C         141.0970  141.4845  169.0860 C.2     1  UNL1        0.0522
     18 C         142.3281  142.0305  168.4255 C.2     1  UNL1        0.0064
     19 C         142.6208  141.6977  166.9925 C.2     1  UNL1        0.0017
     20 C         141.6823  140.8189  166.2199 C.2     1  UNL1        0.0181
     21 C         141.7125  137.9823  158.3414 C.3     1  UNL1        0.0251
     22 C         142.8410  137.3126  157.6147 C.3     1  UNL1        0.0217
     23 C         142.5989  136.6740  156.2792 C.3     1  UNL1        0.0724
     24 N         141.2283  136.7051  155.6703 N.3     1  UNL1       -0.2727
     25 C         140.0999  137.3748  156.3970 C.3     1  UNL1        0.0724
     26 C         140.3420  138.0134  157.7326 C.3     1  UNL1        0.0217
     27 C         140.9862  136.0665  154.3349 C.3     1  UNL1        0.0722
     28 C         141.3187  134.6190  154.1243 C.3     1  UNL1        0.0210
     29 C         141.3229  133.6734  155.2887 C.3     1  UNL1        0.0335
     30 C         141.6554  132.2260  155.0781 C.3     1  UNL1        0.1422
     31 O         141.9837  131.7241  153.7033 O.3     1  UNL1       -0.3538
     32 C         141.9795  132.6697  152.5389 C.3     1  UNL1        0.1422
     33 C         141.6471  134.1172  152.7495 C.3     1  UNL1        0.0335
     34 C         140.8044  141.8173  170.5190 C.1     1  UNL1        0.0965
     35 N         140.5118  142.1501  171.9520 N.1     1  UNL1       -0.1911
@<TRIPOS>BOND
     1     1     2    1
     2     2     3    1
     3     2     4    1
     4     4     5   ar
     5     5     6   ar
     6     6    21    1
     7    21    22    1
     8    22    23    1
     9    23    24    1
    10    24    27    1
    11    27    28    1
    12    28    29    1
    13    29    30    1
    14    30    31    1
    15    31    32    1
    16    32    33    1
    17    24    25    1
    18    25    26    1
    19     6     7   ar
    20     7     8   ar
    21     8     9   ar
    22     9    10    1
    23    10    11    2
    24    10    12    1
    25    12    13    2
    26    13    14    1
    27    14    15    2
    28    15    16    1
    29    16    17    1
    30    17    34    1
    31    34    35    3
    32    17    18    2
    33    18    19    1
    34    19    20    2
    35    13     2    1
    36    20    15    1
    37     9     4   ar
    38    20    12    1
    39    26    21    1
    40    33    28    1
@<TRIPOS>MOLECULE
*****
 35 40 0 0 0
SMALL
GASTEIGER

@<TRIPOS>ATOM
      1 C         145.3271  141.9106  164.0716 C.3     1  UNL1        0.0103
      2 C         144.2275  142.2700  163.1167 C.3     1  UNL1        0.0544
      3 C         145.3594  142.0798  162.1509 C.3     1  UNL1        0.0103
      4 C         143.5210  142.5633  161.8263 C.ar    1  UNL1       -0.0148
      5 C         144.2710  142.4979  160.5289 C.ar    1  UNL1       -0.0081
      6 C         143.5645  142.7912  159.2387 C.ar    1  UNL1       -0.0227
      7 C         142.1080  143.1499  159.2458 C.ar    1  UNL1       -0.0042
      8 C         141.3581  143.2152  160.5432 C.ar    1  UNL1        0.0026
      9 C         142.0646  142.9219  161.8334 C.ar    1  UNL1        0.0353
     10 C         141.3146  142.9873  163.1309 C.2     1  UNL1        0.1964
     11 O         139.8581  143.3460  163.1380 O.2     1  UNL1       -0.2865
     12 C         142.0211  142.6940  164.4211 C.2     1  UNL1        0.0539
     13 C         143.4776  142.3353  164.4140 C.2     1  UNL1        0.0647
     14 N         143.9037  142.0994  165.8327 N.2     1  UNL1       -0.2532
     15 C         142.7107  142.3122  166.7167 C.2     1  UNL1        0.0638
     16 C         142.5335  142.2188  168.2032 C.3     1  UNL1        0.0825
     17 C         141.1927  142.4929  168.8174 C.2     1  UNL1        0.0522
     18 C         140.0292  142.8605  167.9450 C.2     1  UNL1        0.0064
     19 C         140.2064  142.9538  166.4584 C.2     1  UNL1        0.0017
     20 C         141.5472  142.6797  165.8442 C.2     1  UNL1        0.0181
     21 C         144.3145  142.7258  157.9412 C.3     1  UNL1        0.0251
     22 C         145.8004  142.5206  157.9434 C.3     1  UNL1        0.0217
     23 C         146.5504  142.4552  156.6460 C.3     1  UNL1        0.0724
     24 N         145.8144  142.5951  155.3464 N.3     1  UNL1       -0.2727
     25 C         144.3285  142.8003  155.3442 C.3     1  UNL1        0.0724
     26 C         143.5786  142.8656  156.6417 C.3     1  UNL1        0.0217
     27 C         146.5644  142.5297  154.0490 C.3     1  UNL1        0.0722
     28 C         148.0633  142.5878  154.0454 C.3     1  UNL1        0.0210
     29 C         148.8506  141.6966  154.9597 C.3     1  UNL1        0.0335
     30 C         150.3494  141.7546  154.9561 C.3     1  UNL1        0.1422
     31 O         151.0610  142.7039  154.0382 O.3     1  UNL1       -0.3538
     32 C         150.2737  143.5951  153.1239 C.3     1  UNL1        0.1422
     33 C         148.7749  143.5370  153.1276 C.3     1  UNL1        0.0335
     34 C         141.0155  142.3996  170.3039 C.1     1  UNL1        0.0965
     35 N         140.8383  142.3062  171.7905 N.1     1  UNL1       -0.1911
@<TRIPOS>BOND
     1     1     2    1
     2     2     3    1
     3     2     4    1
     4     4     5   ar
     5     5     6   ar
     6     6    21    1
     7    21    22    1
     8    22    23    1
     9    23    24    1
    10    24    27    1
    11    27    28    1
    12    28    29    1
    13    29    30    1
    14    30    31    1
    15    31    32    1
    16    32    33    1
    17    24    25    1
    18    25    26    1
    19     6     7   ar
    20     7     8   ar
    21     8     9   ar
    22     9    10    1
    23    10    11    2
    24    10    12    1
    25    12    13    2
    26    13    14    1
    27    14    15    2
    28    15    16    1
    29    16    17    1
    30    17    34    1
    31    34    35    3
    32    17    18    2
    33    18    19    1
    34    19    20    2
    35    13     2    1
    36    20    15    1
    37     9     4   ar
    38    20    12    1
    39    26    21    1
    40    33    28    1
@<TRIPOS>MOLECULE
*****
 35 40 0 0 0
SMALL
GASTEIGER

@<TRIPOS>ATOM
      1 C         144.9048  142.8765  164.2142 C.3     1  UNL1        0.0103
      2 C         143.9558  142.1334  163.3212 C.3     1  UNL1        0.0544
      3 C         145.0038  142.5226  162.3211 C.3     1  UNL1        0.0103
      4 C         143.3707  141.5256  162.0809 C.ar    1  UNL1       -0.0148
      5 C         144.0891  141.6567  160.7707 C.ar    1  UNL1       -0.0081
      6 C         143.5040  141.0489  159.5305 C.ar    1  UNL1       -0.0227
      7 C         142.2005  140.3099  159.6005 C.ar    1  UNL1       -0.0042
      8 C         141.4821  140.1788  160.9107 C.ar    1  UNL1        0.0026
      9 C         142.0672  140.7866  162.1509 C.ar    1  UNL1        0.0353
     10 C         141.3488  140.6555  163.4612 C.2     1  UNL1        0.1964
     11 O         140.0454  139.9165  163.5312 O.2     1  UNL1       -0.2865
     12 C         141.9339  141.2633  164.7015 C.2     1  UNL1        0.0539
     13 C         143.2374  142.0023  164.6315 C.2     1  UNL1        0.0647
     14 N         143.5670  142.4924  166.0103 N.2     1  UNL1       -0.2532
     15 C         142.4672  142.0563  166.9325 C.2     1  UNL1        0.0638
     16 C         142.2544  142.2528  168.4043 C.3     1  UNL1        0.0825
     17 C         141.0324  141.6897  169.0671 C.2     1  UNL1        0.0522
     18 C         140.0231  140.9300  168.2582 C.2     1  UNL1        0.0064
     19 C         140.2359  140.7336  166.7864 C.2     1  UNL1        0.0017
     20 C         141.4580  141.2967  166.1236 C.2     1  UNL1        0.0181
     21 C         144.2223  141.1800  158.2202 C.3     1  UNL1        0.0251
     22 C         144.0567  140.1265  157.1654 C.3     1  UNL1        0.0217
     23 C         144.7750  140.2576  155.8552 C.3     1  UNL1        0.0724
     24 N         145.6590  141.4422  155.5997 N.3     1  UNL1       -0.2727
     25 C         145.8247  142.4957  156.6545 C.3     1  UNL1        0.0724
     26 C         145.1063  142.3646  157.9648 C.3     1  UNL1        0.0217
     27 C         146.3774  141.5733  154.2894 C.3     1  UNL1        0.0722
     28 C         147.8305  141.9443  154.2646 C.3     1  UNL1        0.0210
     29 C         148.3562  142.8456  153.1870 C.3     1  UNL1        0.0335
     30 C         149.8094  143.2166  153.1622 C.3     1  UNL1        0.1422
     31 O         150.7369  142.6862  154.2150 O.3     1  UNL1       -0.3538
     32 C         150.2113  141.7849  155.2926 C.3     1  UNL1        0.1422
     33 C         148.7581  141.4139  155.3174 C.3     1  UNL1        0.0335
     34 C         140.8196  141.8861  170.5388 C.1     1  UNL1        0.0965
     35 N         140.6068  142.0826  172.0106 N.1     1  UNL1       -0.1911
@<TRIPOS>BOND
     1     1     2    1
     2     2     3    1
     3     2     4    1
     4     4     5   ar
     5     5     6   ar
     6     6    21    1
     7    21    22    1
     8    22    23    1
     9    23    24    1
    10    24    27    1
    11    27    28    1
    12    28    29    1
    13    29    30    1
    14    30    31    1
    15    31    32    1
    16    32    33    1
    17    24    25    1
    18    25    26    1
    19     6     7   ar
    20     7     8   ar
    21     8     9   ar
    22     9    10    1
    23    10    11    2
    24    10    12    1
    25    12    13    2
    26    13    14    1
    27    14    15    2
    28    15    16    1
    29    16    17    1
    30    17    34    1
    31    34    35    3
    32    17    18    2
    33    18    19    1
    34    19    20    2
    35    13     2    1
    36    20    15    1
    37     9     4   ar
    38    20    12    1
    39    26    21    1
    40    33    28    1
@<TRIPOS>MOLECULE
*****
 35 40 0 0 0
SMALL
GASTEIGER

@<TRIPOS>ATOM
      1 C         144.7301  142.7747  164.0008 C.3     1  UNL1        0.0103
      2 C         143.7961  141.9584  163.1574 C.3     1  UNL1        0.0544
      3 C         144.8103  142.3461  162.1224 C.3     1  UNL1        0.0103
      4 C         143.2143  141.2768  161.9544 C.ar    1  UNL1       -0.0148
      5 C         143.9041  141.3810  160.6265 C.ar    1  UNL1       -0.0081
      6 C         143.3223  140.6995  159.4237 C.ar    1  UNL1       -0.0227
      7 C         142.0507  139.9137  159.5486 C.ar    1  UNL1       -0.0042
      8 C         141.3609  139.8095  160.8765 C.ar    1  UNL1        0.0026
      9 C         141.9427  140.4911  162.0794 C.ar    1  UNL1        0.0353
     10 C         141.2529  140.3869  163.4073 C.2     1  UNL1        0.1964
     11 O         139.9813  139.6012  163.5323 O.2     1  UNL1       -0.2865
     12 C         141.8346  141.0685  164.6102 C.2     1  UNL1        0.0539
     13 C         143.1062  141.8542  164.4852 C.2     1  UNL1        0.0647
     14 N         143.4398  142.4141  165.8362 N.2     1  UNL1       -0.2532
     15 C         142.3744  141.9744  166.7962 C.2     1  UNL1        0.0638
     16 C         142.1795  142.2238  168.2625 C.3     1  UNL1        0.0825
     17 C         140.9925  141.6415  168.9709 C.2     1  UNL1        0.0522
     18 C         140.0004  140.8099  168.2132 C.2     1  UNL1        0.0064
     19 C         140.1954  140.5605  166.7469 C.2     1  UNL1        0.0017
     20 C         141.3824  141.1427  166.0385 C.2     1  UNL1        0.0181
     21 C         144.0121  140.8036  158.0957 C.3     1  UNL1        0.0251
     22 C         145.1232  141.7928  157.9033 C.3     1  UNL1        0.0217
     23 C         145.8130  141.8970  156.5754 C.3     1  UNL1        0.0724
     24 N         145.3918  141.0120  155.4399 N.3     1  UNL1       -0.2727
     25 C         144.2807  140.0228  155.6323 C.3     1  UNL1        0.0724
     26 C         143.5909  139.9186  156.9603 C.3     1  UNL1        0.0217
     27 C         146.0816  141.1162  154.1120 C.3     1  UNL1        0.0722
     28 C         146.9165  142.3208  153.7931 C.3     1  UNL1        0.0210
     29 C         146.2631  143.6580  153.6058 C.3     1  UNL1        0.0335
     30 C         147.0981  144.8626  153.2868 C.3     1  UNL1        0.1422
     31 O         148.5864  144.7301  153.1552 O.3     1  UNL1       -0.3538
     32 C         149.2397  143.3930  153.3425 C.3     1  UNL1        0.1422
     33 C         148.4048  142.1883  153.6614 C.3     1  UNL1        0.0335
     34 C         140.7975  141.8909  170.4371 C.1     1  UNL1        0.0965
     35 N         140.6025  142.1403  171.9033 N.1     1  UNL1       -0.1911
@<TRIPOS>BOND
     1     1     2    1
     2     2     3    1
     3     2     4    1
     4     4     5   ar
     5     5     6   ar
     6     6    21    1
     7    21    22    1
     8    22    23    1
     9    23    24    1
    10    24    27    1
    11    27    28    1
    12    28    29    1
    13    29    30    1
    14    30    31    1
    15    31    32    1
    16    32    33    1
    17    24    25    1
    18    25    26    1
    19     6     7   ar
    20     7     8   ar
    21     8     9   ar
    22     9    10    1
    23    10    11    2
    24    10    12    1
    25    12    13    2
    26    13    14    1
    27    14    15    2
    28    15    16    1
    29    16    17    1
    30    17    34    1
    31    34    35    3
    32    17    18    2
    33    18    19    1
    34    19    20    2
    35    13     2    1
    36    20    15    1
    37     9     4   ar
    38    20    12    1
    39    26    21    1
    40    33    28    1
@<TRIPOS>MOLECULE
*****
 35 40 0 0 0
SMALL
GASTEIGER

@<TRIPOS>ATOM
      1 C         144.7469  142.8975  164.3690 C.3     1  UNL1        0.0103
      2 C         143.8183  142.1173  163.4862 C.3     1  UNL1        0.0544
      3 C         144.8570  142.5189  162.4813 C.3     1  UNL1        0.0103
      4 C         143.2505  141.4766  162.2545 C.ar    1  UNL1       -0.0148
      5 C         143.9667  141.6073  160.9430 C.ar    1  UNL1       -0.0081
      6 C         143.3989  140.9666  159.7113 C.ar    1  UNL1       -0.0227
      7 C         142.1149  140.1953  159.7911 C.ar    1  UNL1       -0.0042
      8 C         141.3987  140.0646  161.1025 C.ar    1  UNL1        0.0026
      9 C         141.9665  140.7053  162.3342 C.ar    1  UNL1        0.0353
     10 C         141.2503  140.5746  163.6457 C.2     1  UNL1        0.1964
     11 O         139.9663  139.8033  163.7255 O.2     1  UNL1       -0.2865
     12 C         141.8181  141.2153  164.8774 C.2     1  UNL1        0.0539
     13 C         143.1021  141.9866  164.7977 C.2     1  UNL1        0.0647
     14 N         143.4174  142.5050  166.1695 N.2     1  UNL1       -0.2532
     15 C         142.3282  142.0541  167.0971 C.2     1  UNL1        0.0638
     16 C         142.1088  142.2663  168.5657 C.3     1  UNL1        0.0825
     17 C         140.9009  141.6814  169.2358 C.2     1  UNL1        0.0522
     18 C         139.9125  140.8843  168.4372 C.2     1  UNL1        0.0064
     19 C         140.1320  140.6721  166.9686 C.2     1  UNL1        0.0017
     20 C         141.3398  141.2570  166.2985 C.2     1  UNL1        0.0181
     21 C         144.1152  141.0973  158.3998 C.3     1  UNL1        0.0251
     22 C         143.8532  140.1108  157.3007 C.3     1  UNL1        0.0217
     23 C         144.5693  140.2414  155.9892 C.3     1  UNL1        0.0724
     24 N         145.5475  141.3586  155.7768 N.3     1  UNL1       -0.2727
     25 C         145.8095  142.3451  156.8759 C.3     1  UNL1        0.0724
     26 C         145.0933  142.2145  158.1874 C.3     1  UNL1        0.0217
     27 C         146.2637  141.4892  154.4653 C.3     1  UNL1        0.0722
     28 C         146.1599  142.7614  153.6775 C.3     1  UNL1        0.0210
     29 C         147.2627  143.7760  153.7427 C.3     1  UNL1        0.0335
     30 C         147.1590  145.0483  152.9550 C.3     1  UNL1        0.1422
     31 O         145.9523  145.3059  152.1020 O.3     1  UNL1       -0.3538
     32 C         144.8495  144.2913  152.0368 C.3     1  UNL1        0.1422
     33 C         144.9533  143.0191  152.8245 C.3     1  UNL1        0.0335
     34 C         140.6815  141.8936  170.7043 C.1     1  UNL1        0.0965
     35 N         140.4620  142.1058  172.1729 N.1     1  UNL1       -0.1911
@<TRIPOS>BOND
     1     1     2    1
     2     2     3    1
     3     2     4    1
     4     4     5   ar
     5     5     6   ar
     6     6    21    1
     7    21    22    1
     8    22    23    1
     9    23    24    1
    10    24    27    1
    11    27    28    1
    12    28    29    1
    13    29    30    1
    14    30    31    1
    15    31    32    1
    16    32    33    1
    17    24    25    1
    18    25    26    1
    19     6     7   ar
    20     7     8   ar
    21     8     9   ar
    22     9    10    1
    23    10    11    2
    24    10    12    1
    25    12    13    2
    26    13    14    1
    27    14    15    2
    28    15    16    1
    29    16    17    1
    30    17    34    1
    31    34    35    3
    32    17    18    2
    33    18    19    1
    34    19    20    2
    35    13     2    1
    36    20    15    1
    37     9     4   ar
    38    20    12    1
    39    26    21    1
    40    33    28    1
@<TRIPOS>MOLECULE
*****
 35 40 0 0 0
SMALL
GASTEIGER

@<TRIPOS>ATOM
      1 C         138.6647  140.5002  163.5990 C.3     1  UNL1        0.0103
      2 C         139.9638  139.8817  163.1751 C.3     1  UNL1        0.0544
      3 C         139.2108  139.8202  161.8791 C.3     1  UNL1        0.0103
      4 C         141.0014  139.2417  162.3010 C.ar    1  UNL1       -0.0148
      5 C         140.6996  138.9655  160.8579 C.ar    1  UNL1       -0.0081
      6 C         141.7372  138.3256  159.9839 C.ar    1  UNL1       -0.0227
      7 C         143.0766  137.9620  160.5530 C.ar    1  UNL1       -0.0042
      8 C         143.3784  138.2382  161.9960 C.ar    1  UNL1        0.0026
      9 C         142.3408  138.8781  162.8700 C.ar    1  UNL1        0.0353
     10 C         142.6426  139.1544  164.3132 C.2     1  UNL1        0.1964
     11 O         143.9819  138.7908  164.8823 O.2     1  UNL1       -0.2865
     12 C         141.6050  139.7943  165.1872 C.2     1  UNL1        0.0539
     13 C         140.2656  140.1579  164.6181 C.2     1  UNL1        0.0647
     14 N         139.4477  140.7733  165.7146 N.2     1  UNL1       -0.2532
     15 C         140.2816  140.7901  166.9614 C.2     1  UNL1        0.0638
     16 C         139.9991  141.2781  168.3514 C.3     1  UNL1        0.0825
     17 C         141.0498  141.1611  169.4154 C.2     1  UNL1        0.0522
     18 C         142.3831  140.5560  169.0894 C.2     1  UNL1        0.0064
     19 C         142.6656  140.0679  167.6994 C.2     1  UNL1        0.0017
     20 C         141.6148  140.1850  166.6354 C.2     1  UNL1        0.0181
     21 C         141.4354  138.0493  158.5407 C.3     1  UNL1        0.0251
     22 C         142.5201  137.5581  157.6284 C.3     1  UNL1        0.0217
     23 C         142.2184  137.2819  156.1853 C.3     1  UNL1        0.0724
     24 N         140.8320  137.4967  155.6544 N.3     1  UNL1       -0.2727
     25 C         139.7473  137.9879  156.5667 C.3     1  UNL1        0.0724
     26 C         140.0491  138.2642  158.0099 C.3     1  UNL1        0.0217
     27 C         140.5303  137.2204  154.2113 C.3     1  UNL1        0.0722
     28 C         139.3935  137.9269  153.5341 C.3     1  UNL1        0.0210
     29 C         139.5890  139.3100  152.9876 C.3     1  UNL1        0.0335
     30 C         138.4522  140.0165  152.3104 C.3     1  UNL1        0.1422
     31 O         137.1199  139.3399  152.1798 O.3     1  UNL1       -0.3538
     32 C         136.9244  137.9568  152.7263 C.3     1  UNL1        0.1422
     33 C         138.0612  137.2503  153.4035 C.3     1  UNL1        0.0335
     34 C         140.7674  141.6491  170.8053 C.1     1  UNL1        0.0965
     35 N         140.4849  142.1371  172.1953 N.1     1  UNL1       -0.1911
@<TRIPOS>BOND
     1     1     2    1
     2     2     3    1
     3     2     4    1
     4     4     5   ar
     5     5     6   ar
     6     6    21    1
     7    21    22    1
     8    22    23    1
     9    23    24    1
    10    24    27    1
    11    27    28    1
    12    28    29    1
    13    29    30    1
    14    30    31    1
    15    31    32    1
    16    32    33    1
    17    24    25    1
    18    25    26    1
    19     6     7   ar
    20     7     8   ar
    21     8     9   ar
    22     9    10    1
    23    10    11    2
    24    10    12    1
    25    12    13    2
    26    13    14    1
    27    14    15    2
    28    15    16    1
    29    16    17    1
    30    17    34    1
    31    34    35    3
    32    17    18    2
    33    18    19    1
    34    19    20    2
    35    13     2    1
    36    20    15    1
    37     9     4   ar
    38    20    12    1
    39    26    21    1
    40    33    28    1
