@<TRIPOS>MOLECULE
*****
 41 45 0 0 0
SMALL
GASTEIGER

@<TRIPOS>ATOM
      1 C         140.9648  140.2043  165.2466 C.3     1  UNL1        0.0776
      2 C         142.5390  139.6385  163.2586 C.ar    1  UNL1        0.2211
      3 N         142.8640  139.7156  161.7963 N.ar    1  UNL1       -0.2119
      4 C         141.9399  140.4357  160.8595 C.ar    1  UNL1        0.0844
      5 C         142.2649  140.5128  159.3972 C.ar    1  UNL1        0.0193
      6 C         141.3408  141.2328  158.4605 C.ar    1  UNL1        0.0032
      7 C         140.0917  141.8758  158.9861 C.ar    1  UNL1        0.0225
      8 C         139.7667  141.7987  160.4484 C.ar    1  UNL1        0.0031
      9 C         140.6908  141.0786  161.3851 C.ar    1  UNL1        0.0177
     10 C         140.3658  141.0015  162.8475 C.ar    1  UNL1        0.0022
     11 C         141.2899  140.2814  163.7842 C.ar    1  UNL1        0.0373
     12 C         139.1676  142.5959  158.0493 C.2     1  UNL1        0.1398
     13 N         137.7897  142.0601  157.7957 N.2     1  UNL1       -0.0847
     14 O         136.8656  142.7802  156.8589 O.2     1  UNL1       -0.4087
     15 H         136.0049  142.4455  156.7004 H       1  UNL1        0.3278
     16 C         144.8736  139.3970  164.3729 C.3     1  UNL1        0.2542
     17 O         143.4631  138.9183  164.1954 O.3     1  UNL1       -0.4563
     18 C         139.8552  139.3142  165.7223 C.ar    1  UNL1       -0.0157
     19 C         139.0189  139.7218  166.8989 C.ar    1  UNL1       -0.0039
     20 C         137.9092  138.8316  167.3746 C.ar    1  UNL1       -0.0003
     21 C         137.6358  137.5340  166.6737 C.ar    1  UNL1       -0.0000
     22 C         138.4722  137.1263  165.4971 C.ar    1  UNL1       -0.0003
     23 C         139.5818  138.0165  165.0213 C.ar    1  UNL1       -0.0039
     24 C         141.7495  141.0173  166.2331 C.3     1  UNL1        0.1158
     25 O         142.3210  139.7587  166.8157 O.3     1  UNL1       -0.3820
     26 H         142.6610  139.9398  167.7059 H       1  UNL1        0.2107
     27 C         141.1780  142.2758  165.6506 C.ar    1  UNL1        0.0024
     28 C         139.7437  142.6353  165.9030 C.ar    1  UNL1       -0.0020
     29 C         139.1722  143.8938  165.3205 C.ar    1  UNL1       -0.0002
     30 C         140.0349  144.7930  164.4855 C.ar    1  UNL1       -0.0000
     31 C         141.4692  144.4336  164.2330 C.ar    1  UNL1       -0.0002
     32 C         142.3319  145.3327  163.3980 C.ar    1  UNL1       -0.0000
     33 C         143.7662  144.9733  163.1456 C.ar    1  UNL1       -0.0000
     34 C         144.3377  143.7147  163.7281 C.ar    1  UNL1       -0.0000
     35 C         143.4750  142.8156  164.5631 C.ar    1  UNL1       -0.0002
     36 C         142.0407  143.1750  164.8156 C.ar    1  UNL1       -0.0018
     37 C         142.5342  141.8302  167.2197 C.3     1  UNL1        0.0491
     38 C         142.5975  141.4079  168.6576 C.3     1  UNL1        0.0750
     39 N         141.3317  141.1520  169.4207 N.3     1  UNL1       -0.2702
     40 C         141.0989  139.8156  170.0609 C.3     1  UNL1        0.0897
     41 C         140.2986  142.2326  169.5435 C.3     1  UNL1        0.0897
@<TRIPOS>BOND
     1    16    17    1
     2    17     2    1
     3     2     3   ar
     4     3     4   ar
     5     4     5   ar
     6     5     6   ar
     7     6     7   ar
     8     7    12    1
     9    12    13    2
    10    13    14    1
    11     7     8   ar
    12     8     9   ar
    13     9    10   ar
    14    10    11   ar
    15    11     1    1
    16     1    18    1
    17    18    19   ar
    18    19    20   ar
    19    20    21   ar
    20    21    22   ar
    21    22    23   ar
    22     1    24    1
    23    24    25    1
    24    24    37    1
    25    37    38    1
    26    38    39    1
    27    39    40    1
    28    39    41    1
    29    24    27    1
    30    27    28   ar
    31    28    29   ar
    32    29    30   ar
    33    30    31   ar
    34    31    32   ar
    35    32    33   ar
    36    33    34   ar
    37    34    35   ar
    38    35    36   ar
    39    11     2   ar
    40    23    18   ar
    41    36    27   ar
    42     9     4   ar
    43    36    31   ar
    44    14    15    1
    45    25    26    1
@<TRIPOS>MOLECULE
*****
 41 45 0 0 0
SMALL
GASTEIGER

@<TRIPOS>ATOM
      1 C         139.5516  140.7892  164.6696 C.3     1  UNL1        0.0776
      2 C         139.0072  139.8748  167.0398 C.ar    1  UNL1        0.2211
      3 N         139.2825  139.8410  168.5139 N.ar    1  UNL1       -0.2119
      4 C         140.3774  140.6877  169.0921 C.ar    1  UNL1        0.0844
      5 C         140.6526  140.6539  170.5662 C.ar    1  UNL1        0.0193
      6 C         141.7475  141.5006  171.1443 C.ar    1  UNL1        0.0032
      7 C         142.5671  142.3812  170.2483 C.ar    1  UNL1        0.0225
      8 C         142.2918  142.4151  168.7742 C.ar    1  UNL1        0.0031
      9 C         141.1970  141.5683  168.1961 C.ar    1  UNL1        0.0177
     10 C         140.9217  141.6021  166.7219 C.ar    1  UNL1        0.0022
     11 C         139.8268  140.7554  166.1438 C.ar    1  UNL1        0.0373
     12 C         143.6620  143.2280  170.8265 C.2     1  UNL1        0.1398
     13 N         145.0243  143.2238  170.1987 N.2     1  UNL1       -0.0847
     14 O         146.1192  144.0706  170.7769 O.2     1  UNL1       -0.4087
     15 H         146.9701  144.0680  170.3847 H       1  UNL1        0.3278
     16 C         137.2867  137.9439  167.2882 C.3     1  UNL1        0.2542
     17 O         137.9123  139.0280  166.4616 O.3     1  UNL1       -0.4563
     18 C         139.2822  142.0973  163.9868 C.ar    1  UNL1       -0.0157
     19 C         138.0195  142.2864  163.1995 C.ar    1  UNL1       -0.0039
     20 C         137.7502  143.5945  162.5167 C.ar    1  UNL1       -0.0003
     21 C         138.7435  144.7136  162.6211 C.ar    1  UNL1       -0.0000
     22 C         140.0063  144.5246  163.4084 C.ar    1  UNL1       -0.0003
     23 C         140.2756  143.2164  164.0913 C.ar    1  UNL1       -0.0039
     24 C         139.5456  139.5149  163.8783 C.3     1  UNL1        0.1158
     25 O         138.0548  139.6071  163.7410 O.3     1  UNL1       -0.3820
     26 H         137.6962  138.7344  163.5160 H       1  UNL1        0.2107
     27 C         141.0364  139.4227  164.0156 C.ar    1  UNL1        0.0024
     28 C         141.6387  138.6591  165.1577 C.ar    1  UNL1       -0.0020
     29 C         143.1295  138.5669  165.2950 C.ar    1  UNL1       -0.0002
     30 C         144.0182  139.2383  164.2903 C.ar    1  UNL1       -0.0000
     31 C         143.4160  140.0019  163.1483 C.ar    1  UNL1       -0.0002
     32 C         144.3047  140.6733  162.1435 C.ar    1  UNL1       -0.0000
     33 C         143.7025  141.4370  161.0015 C.ar    1  UNL1       -0.0000
     34 C         142.2116  141.5292  160.8642 C.ar    1  UNL1       -0.0000
     35 C         141.3230  140.8578  161.8689 C.ar    1  UNL1       -0.0002
     36 C         141.9251  140.0941  163.0109 C.ar    1  UNL1       -0.0018
     37 C         139.5397  138.2407  163.0871 C.3     1  UNL1        0.0491
     38 C         138.4901  138.0130  162.0399 C.3     1  UNL1        0.0750
     39 N         138.5461  138.7686  160.7452 N.3     1  UNL1       -0.2702
     40 C         137.5169  139.8174  160.4439 C.3     1  UNL1        0.0897
     41 C         139.6311  138.4753  159.7519 C.3     1  UNL1        0.0897
@<TRIPOS>BOND
     1    16    17    1
     2    17     2    1
     3     2     3   ar
     4     3     4   ar
     5     4     5   ar
     6     5     6   ar
     7     6     7   ar
     8     7    12    1
     9    12    13    2
    10    13    14    1
    11     7     8   ar
    12     8     9   ar
    13     9    10   ar
    14    10    11   ar
    15    11     1    1
    16     1    18    1
    17    18    19   ar
    18    19    20   ar
    19    20    21   ar
    20    21    22   ar
    21    22    23   ar
    22     1    24    1
    23    24    25    1
    24    24    37    1
    25    37    38    1
    26    38    39    1
    27    39    40    1
    28    39    41    1
    29    24    27    1
    30    27    28   ar
    31    28    29   ar
    32    29    30   ar
    33    30    31   ar
    34    31    32   ar
    35    32    33   ar
    36    33    34   ar
    37    34    35   ar
    38    35    36   ar
    39    11     2   ar
    40    23    18   ar
    41    36    27   ar
    42     9     4   ar
    43    36    31   ar
    44    14    15    1
    45    25    26    1
@<TRIPOS>MOLECULE
*****
 41 45 0 0 0
SMALL
GASTEIGER

@<TRIPOS>ATOM
      1 C         140.1939  140.7320  165.2282 C.3     1  UNL1        0.0776
      2 C         139.2279  142.2167  163.3275 C.ar    1  UNL1        0.2211
      3 N         139.2182  142.6424  161.8892 N.ar    1  UNL1       -0.2119
      4 C         140.1649  142.0089  160.9131 C.ar    1  UNL1        0.0844
      5 C         140.1552  142.4346  159.4749 C.ar    1  UNL1        0.0193
      6 C         141.1019  141.8011  158.4989 C.ar    1  UNL1        0.0032
      7 C         142.0582  140.7420  158.9612 C.ar    1  UNL1        0.0225
      8 C         142.0679  140.3163  160.3995 C.ar    1  UNL1        0.0031
      9 C         141.1212  140.9498  161.3755 C.ar    1  UNL1        0.0177
     10 C         141.1309  140.5242  162.8138 C.ar    1  UNL1        0.0022
     11 C         140.1842  141.1576  163.7898 C.ar    1  UNL1        0.0373
     12 C         143.0049  140.1085  157.9852 C.2     1  UNL1        0.1398
     13 N         144.4272  140.5785  157.9070 N.2     1  UNL1       -0.0847
     14 O         145.3738  139.9450  156.9310 O.2     1  UNL1       -0.4087
     15 H         146.2623  140.2386  156.8821 H       1  UNL1        0.3278
     16 C         138.1030  144.3395  164.3166 C.3     1  UNL1        0.2542
     17 O         138.2812  142.8502  164.3035 O.3     1  UNL1       -0.4563
     18 C         139.3578  139.5681  165.6715 C.ar    1  UNL1       -0.0157
     19 C         139.3670  138.2937  164.8806 C.ar    1  UNL1       -0.0039
     20 C         138.5309  137.1298  165.3239 C.ar    1  UNL1       -0.0003
     21 C         137.6858  137.2405  166.5582 C.ar    1  UNL1       -0.0000
     22 C         137.6767  138.5150  167.3492 C.ar    1  UNL1       -0.0003
     23 C         138.5127  139.6788  166.9058 C.ar    1  UNL1       -0.0039
     24 C         141.0395  141.4702  166.2231 C.3     1  UNL1        0.1158
     25 O         139.8714  142.3466  166.5656 O.3     1  UNL1       -0.3820
     26 H         140.1897  143.1575  166.9923 H       1  UNL1        0.2107
     27 C         142.2076  140.5937  165.8806 C.ar    1  UNL1        0.0024
     28 C         142.2606  139.1828  166.3872 C.ar    1  UNL1       -0.0020
     29 C         143.4287  138.3064  166.0447 C.ar    1  UNL1       -0.0002
     30 C         144.5438  138.8407  165.1955 C.ar    1  UNL1       -0.0000
     31 C         144.4908  140.2516  164.6889 C.ar    1  UNL1       -0.0002
     32 C         145.6059  140.7860  163.8398 C.ar    1  UNL1       -0.0000
     33 C         145.5529  142.1969  163.3332 C.ar    1  UNL1       -0.0000
     34 C         144.3848  143.0733  163.6757 C.ar    1  UNL1       -0.0000
     35 C         143.2697  142.5389  164.5249 C.ar    1  UNL1       -0.0002
     36 C         143.3227  141.1281  165.0315 C.ar    1  UNL1       -0.0018
     37 C         141.8851  142.2084  167.2180 C.3     1  UNL1        0.0491
     38 C         141.7884  141.8760  168.6775 C.3     1  UNL1        0.0750
     39 N         140.6125  142.3511  169.4786 N.3     1  UNL1       -0.2702
     40 C         139.6024  141.3647  169.9853 C.3     1  UNL1        0.0897
     41 C         140.4466  143.8126  169.7728 C.3     1  UNL1        0.0897
@<TRIPOS>BOND
     1    16    17    1
     2    17     2    1
     3     2     3   ar
     4     3     4   ar
     5     4     5   ar
     6     5     6   ar
     7     6     7   ar
     8     7    12    1
     9    12    13    2
    10    13    14    1
    11     7     8   ar
    12     8     9   ar
    13     9    10   ar
    14    10    11   ar
    15    11     1    1
    16     1    18    1
    17    18    19   ar
    18    19    20   ar
    19    20    21   ar
    20    21    22   ar
    21    22    23   ar
    22     1    24    1
    23    24    25    1
    24    24    37    1
    25    37    38    1
    26    38    39    1
    27    39    40    1
    28    39    41    1
    29    24    27    1
    30    27    28   ar
    31    28    29   ar
    32    29    30   ar
    33    30    31   ar
    34    31    32   ar
    35    32    33   ar
    36    33    34   ar
    37    34    35   ar
    38    35    36   ar
    39    11     2   ar
    40    23    18   ar
    41    36    27   ar
    42     9     4   ar
    43    36    31   ar
    44    14    15    1
    45    25    26    1
@<TRIPOS>MOLECULE
*****
 41 45 0 0 0
SMALL
GASTEIGER

@<TRIPOS>ATOM
      1 C         139.6197  140.8294  164.6209 C.3     1  UNL1        0.0776
      2 C         139.1051  139.8705  166.9802 C.ar    1  UNL1        0.2211
      3 N         139.3913  139.8176  168.4516 N.ar    1  UNL1       -0.2119
      4 C         140.4783  140.6706  169.0355 C.ar    1  UNL1        0.0844
      5 C         140.7644  140.6177  170.5070 C.ar    1  UNL1        0.0193
      6 C         141.8514  141.4707  171.0908 C.ar    1  UNL1        0.0032
      7 C         142.6522  142.3766  170.2031 C.ar    1  UNL1        0.0225
      8 C         142.3660  142.4296  168.7316 C.ar    1  UNL1        0.0031
      9 C         141.2791  141.5765  168.1478 C.ar    1  UNL1        0.0177
     10 C         140.9929  141.6295  166.6763 C.ar    1  UNL1        0.0022
     11 C         139.9059  140.7765  166.0925 C.ar    1  UNL1        0.0373
     12 C         143.7392  143.2296  170.7870 C.2     1  UNL1        0.1398
     13 N         145.1069  143.2271  170.1712 N.2     1  UNL1       -0.0847
     14 O         146.1939  144.0801  170.7551 O.2     1  UNL1       -0.4087
     15 H         147.0483  144.0785  170.3704 H       1  UNL1        0.3278
     16 C         137.3077  138.0150  167.2567 C.3     1  UNL1        0.2542
     17 O         138.0181  139.0175  166.3963 O.3     1  UNL1       -0.4563
     18 C         139.0789  142.0865  164.0068 C.ar    1  UNL1       -0.0157
     19 C         139.3928  143.4175  164.6231 C.ar    1  UNL1       -0.0039
     20 C         138.8520  144.6746  164.0090 C.ar    1  UNL1       -0.0003
     21 C         137.9972  144.6007  162.7786 C.ar    1  UNL1       -0.0000
     22 C         137.6832  143.2697  162.1623 C.ar    1  UNL1       -0.0003
     23 C         138.2241  142.0125  162.7764 C.ar    1  UNL1       -0.0039
     24 C         139.8744  139.6252  163.7636 C.3     1  UNL1        0.1158
     25 O         138.4702  139.1563  164.0052 O.3     1  UNL1       -0.3820
     26 H         138.4083  138.2078  163.8116 H       1  UNL1        0.2107
     27 C         141.2786  140.0941  163.5220 C.ar    1  UNL1        0.0024
     28 C         141.5524  141.1352  162.4774 C.ar    1  UNL1       -0.0020
     29 C         142.9565  141.6042  162.2358 C.ar    1  UNL1       -0.0002
     30 C         144.0869  141.0320  163.0389 C.ar    1  UNL1       -0.0000
     31 C         143.8132  139.9910  164.0835 C.ar    1  UNL1       -0.0002
     32 C         144.9436  139.4189  164.8865 C.ar    1  UNL1       -0.0000
     33 C         144.6698  138.3778  165.9312 C.ar    1  UNL1       -0.0000
     34 C         143.2656  137.9089  166.1727 C.ar    1  UNL1       -0.0000
     35 C         142.1352  138.4810  165.3697 C.ar    1  UNL1       -0.0002
     36 C         142.4090  139.5220  164.3251 C.ar    1  UNL1       -0.0018
     37 C         140.1290  138.4210  162.9063 C.3     1  UNL1        0.0491
     38 C         139.1115  137.9954  161.8897 C.3     1  UNL1        0.0750
     39 N         138.7956  138.8874  160.7257 N.3     1  UNL1       -0.2702
     40 C         137.4222  139.4727  160.5805 C.3     1  UNL1        0.0897
     41 C         139.8532  139.1940  159.7071 C.3     1  UNL1        0.0897
@<TRIPOS>BOND
     1    16    17    1
     2    17     2    1
     3     2     3   ar
     4     3     4   ar
     5     4     5   ar
     6     5     6   ar
     7     6     7   ar
     8     7    12    1
     9    12    13    2
    10    13    14    1
    11     7     8   ar
    12     8     9   ar
    13     9    10   ar
    14    10    11   ar
    15    11     1    1
    16     1    18    1
    17    18    19   ar
    18    19    20   ar
    19    20    21   ar
    20    21    22   ar
    21    22    23   ar
    22     1    24    1
    23    24    25    1
    24    24    37    1
    25    37    38    1
    26    38    39    1
    27    39    40    1
    28    39    41    1
    29    24    27    1
    30    27    28   ar
    31    28    29   ar
    32    29    30   ar
    33    30    31   ar
    34    31    32   ar
    35    32    33   ar
    36    33    34   ar
    37    34    35   ar
    38    35    36   ar
    39    11     2   ar
    40    23    18   ar
    41    36    27   ar
    42     9     4   ar
    43    36    31   ar
    44    14    15    1
    45    25    26    1
@<TRIPOS>MOLECULE
*****
 41 45 0 0 0
SMALL
GASTEIGER

@<TRIPOS>ATOM
      1 C         141.7354  142.4649  163.0537 C.3     1  UNL1        0.0776
      2 C         143.3511  142.9670  165.0254 C.ar    1  UNL1        0.2211
      3 N         143.6931  142.8668  166.4824 N.ar    1  UNL1       -0.2119
      4 C         142.7614  142.1643  167.4250 C.ar    1  UNL1        0.0844
      5 C         143.1034  142.0642  168.8820 C.ar    1  UNL1        0.0193
      6 C         142.1716  141.3617  169.8245 C.ar    1  UNL1        0.0032
      7 C         140.8979  140.7594  169.3099 C.ar    1  UNL1        0.0225
      8 C         140.5559  140.8595  167.8529 C.ar    1  UNL1        0.0031
      9 C         141.4876  141.5620  166.9104 C.ar    1  UNL1        0.0177
     10 C         141.1456  141.6622  165.4533 C.ar    1  UNL1        0.0022
     11 C         142.0773  142.3647  164.5109 C.ar    1  UNL1        0.0373
     12 C         139.9661  140.0569  170.2525 C.2     1  UNL1        0.1398
     13 N         138.4882  140.0722  169.9966 N.2     1  UNL1       -0.0847
     14 O         137.5564  139.3697  170.9392 O.2     1  UNL1       -0.4087
     15 H         136.6332  139.3793  170.7793 H       1  UNL1        0.3278
     16 C         144.0417  145.1050  163.7208 C.3     1  UNL1        0.2542
     17 O         144.2829  143.6695  164.0828 O.3     1  UNL1       -0.4563
     18 C         141.0048  143.6683  162.5359 C.ar    1  UNL1       -0.0157
     19 C         141.3862  144.2658  161.2140 C.ar    1  UNL1       -0.0039
     20 C         140.6557  145.4692  160.6961 C.ar    1  UNL1       -0.0003
     21 C         139.5437  146.0750  161.5002 C.ar    1  UNL1       -0.0000
     22 C         139.1623  145.4775  162.8221 C.ar    1  UNL1       -0.0003
     23 C         139.8928  144.2741  163.3400 C.ar    1  UNL1       -0.0039
     24 C         142.1239  141.3617  162.1146 C.3     1  UNL1        0.1158
     25 O         143.4944  141.9568  161.9826 O.3     1  UNL1       -0.3820
     26 H         143.9170  141.6200  161.1771 H       1  UNL1        0.2107
     27 C         140.7534  140.7666  162.2466 C.ar    1  UNL1        0.0024
     28 C         139.5949  141.3827  161.5196 C.ar    1  UNL1       -0.0020
     29 C         138.2244  140.7876  161.6516 C.ar    1  UNL1       -0.0002
     30 C         138.0122  139.5764  162.5106 C.ar    1  UNL1       -0.0000
     31 C         139.1706  138.9603  163.2377 C.ar    1  UNL1       -0.0002
     32 C         138.9584  137.7491  164.0967 C.ar    1  UNL1       -0.0000
     33 C         140.1168  137.1330  164.8238 C.ar    1  UNL1       -0.0000
     34 C         141.4873  137.7281  164.6918 C.ar    1  UNL1       -0.0000
     35 C         141.6995  138.9393  163.8327 C.ar    1  UNL1       -0.0002
     36 C         140.5412  139.5554  163.1057 C.ar    1  UNL1       -0.0018
     37 C         142.5124  140.2586  161.1754 C.3     1  UNL1        0.0491
     38 C         143.5407  140.5064  160.1119 C.3     1  UNL1        0.0750
     39 N         143.2820  141.5246  159.0412 N.3     1  UNL1       -0.2702
     40 C         141.9130  141.6506  158.4411 C.3     1  UNL1        0.0897
     41 C         144.3921  142.4168  158.5706 C.3     1  UNL1        0.0897
@<TRIPOS>BOND
     1    16    17    1
     2    17     2    1
     3     2     3   ar
     4     3     4   ar
     5     4     5   ar
     6     5     6   ar
     7     6     7   ar
     8     7    12    1
     9    12    13    2
    10    13    14    1
    11     7     8   ar
    12     8     9   ar
    13     9    10   ar
    14    10    11   ar
    15    11     1    1
    16     1    18    1
    17    18    19   ar
    18    19    20   ar
    19    20    21   ar
    20    21    22   ar
    21    22    23   ar
    22     1    24    1
    23    24    25    1
    24    24    37    1
    25    37    38    1
    26    38    39    1
    27    39    40    1
    28    39    41    1
    29    24    27    1
    30    27    28   ar
    31    28    29   ar
    32    29    30   ar
    33    30    31   ar
    34    31    32   ar
    35    32    33   ar
    36    33    34   ar
    37    34    35   ar
    38    35    36   ar
    39    11     2   ar
    40    23    18   ar
    41    36    27   ar
    42     9     4   ar
    43    36    31   ar
    44    14    15    1
    45    25    26    1
@<TRIPOS>MOLECULE
*****
 41 45 0 0 0
SMALL
GASTEIGER

@<TRIPOS>ATOM
      1 C         140.9456  141.8639  162.7044 C.3     1  UNL1        0.0776
      2 C         139.4321  140.9989  164.6309 C.ar    1  UNL1        0.2211
      3 N         139.1715  140.8184  166.0969 N.ar    1  UNL1       -0.2119
      4 C         140.1637  141.3223  167.1028 C.ar    1  UNL1        0.0844
      5 C         139.9031  141.1418  168.5688 C.ar    1  UNL1        0.0193
      6 C         140.8952  141.6457  169.5746 C.ar    1  UNL1        0.0032
      7 C         142.1481  142.3301  169.1143 C.ar    1  UNL1        0.0225
      8 C         142.4088  142.5106  167.6482 C.ar    1  UNL1        0.0031
      9 C         141.4166  142.0067  166.6425 C.ar    1  UNL1        0.0177
     10 C         141.6772  142.1873  165.1763 C.ar    1  UNL1        0.0022
     11 C         140.6850  141.6834  164.1705 C.ar    1  UNL1        0.0373
     12 C         143.1403  142.8340  170.1201 C.2     1  UNL1        0.1398
     13 N         144.5930  142.9279  169.7585 N.2     1  UNL1       -0.0847
     14 O         145.5853  143.4318  170.7644 O.2     1  UNL1       -0.4087
     15 H         146.4927  143.4904  170.5385 H       1  UNL1        0.3278
     16 C         137.3338  141.3896  163.1495 C.3     1  UNL1        0.2542
     17 O         138.4399  140.4950  163.6250 O.3     1  UNL1       -0.4563
     18 C         140.7068  143.1966  162.0587 C.ar    1  UNL1       -0.0157
     19 C         141.2613  143.4789  160.6939 C.ar    1  UNL1       -0.0039
     20 C         141.0224  144.8116  160.0482 C.ar    1  UNL1       -0.0003
     21 C         140.2290  145.8619  160.7673 C.ar    1  UNL1       -0.0000
     22 C         139.6745  145.5797  162.1322 C.ar    1  UNL1       -0.0003
     23 C         139.9133  144.2470  162.7779 C.ar    1  UNL1       -0.0039
     24 C         141.4451  140.7118  161.8840 C.3     1  UNL1        0.1158
     25 O         140.1133  140.6217  161.1997 O.3     1  UNL1       -0.3820
     26 H         140.0158  139.7450  160.7963 H       1  UNL1        0.2107
     27 C         142.7769  140.8019  162.5682 C.ar    1  UNL1        0.0024
     28 C         143.7931  141.8022  162.1028 C.ar    1  UNL1       -0.0020
     29 C         145.1249  141.8923  162.7871 C.ar    1  UNL1       -0.0002
     30 C         145.4404  140.9821  163.9368 C.ar    1  UNL1       -0.0000
     31 C         144.4243  139.9818  164.4022 C.ar    1  UNL1       -0.0002
     32 C         144.7399  139.0715  165.5519 C.ar    1  UNL1       -0.0000
     33 C         143.7236  138.0711  166.0174 C.ar    1  UNL1       -0.0000
     34 C         142.3919  137.9810  165.3331 C.ar    1  UNL1       -0.0000
     35 C         142.0763  138.8913  164.1834 C.ar    1  UNL1       -0.0002
     36 C         143.0924  139.8916  163.7180 C.ar    1  UNL1       -0.0018
     37 C         141.9446  139.5597  161.0636 C.3     1  UNL1        0.0491
     38 C         140.9723  138.6840  160.3301 C.3     1  UNL1        0.0750
     39 N         140.9071  138.7265  158.8321 N.3     1  UNL1       -0.2702
     40 C         142.1695  138.6645  158.0243 C.3     1  UNL1        0.0897
     41 C         139.5794  138.8310  158.1419 C.3     1  UNL1        0.0897
@<TRIPOS>BOND
     1    16    17    1
     2    17     2    1
     3     2     3   ar
     4     3     4   ar
     5     4     5   ar
     6     5     6   ar
     7     6     7   ar
     8     7    12    1
     9    12    13    2
    10    13    14    1
    11     7     8   ar
    12     8     9   ar
    13     9    10   ar
    14    10    11   ar
    15    11     1    1
    16     1    18    1
    17    18    19   ar
    18    19    20   ar
    19    20    21   ar
    20    21    22   ar
    21    22    23   ar
    22     1    24    1
    23    24    25    1
    24    24    37    1
    25    37    38    1
    26    38    39    1
    27    39    40    1
    28    39    41    1
    29    24    27    1
    30    27    28   ar
    31    28    29   ar
    32    29    30   ar
    33    30    31   ar
    34    31    32   ar
    35    32    33   ar
    36    33    34   ar
    37    34    35   ar
    38    35    36   ar
    39    11     2   ar
    40    23    18   ar
    41    36    27   ar
    42     9     4   ar
    43    36    31   ar
    44    14    15    1
    45    25    26    1
@<TRIPOS>MOLECULE
*****
 41 45 0 0 0
SMALL
GASTEIGER

@<TRIPOS>ATOM
      1 C         141.1035  141.7208  162.7886 C.3     1  UNL1        0.0776
      2 C         140.1763  143.1567  164.7452 C.ar    1  UNL1        0.2211
      3 N         140.0651  143.4318  166.2156 N.ar    1  UNL1       -0.2119
      4 C         140.7701  142.5460  167.1997 C.ar    1  UNL1        0.0844
      5 C         140.6589  142.8211  168.6701 C.ar    1  UNL1        0.0193
      6 C         141.3639  141.9354  169.6542 C.ar    1  UNL1        0.0032
      7 C         142.1800  140.7746  169.1679 C.ar    1  UNL1        0.0225
      8 C         142.2912  140.4995  167.6976 C.ar    1  UNL1        0.0031
      9 C         141.5862  141.3852  166.7135 C.ar    1  UNL1        0.0177
     10 C         141.6973  141.1101  165.2431 C.ar    1  UNL1        0.0022
     11 C         140.9924  141.9959  164.2590 C.ar    1  UNL1        0.0373
     12 C         142.8850  139.8889  170.1521 C.2     1  UNL1        0.1398
     13 N         142.9497  138.4088  169.9169 N.2     1  UNL1       -0.0847
     14 O         143.6547  137.5231  170.9011 O.2     1  UNL1       -0.4087
     15 H         143.6951  136.5986  170.7542 H       1  UNL1        0.3278
     16 C         138.0316  144.4049  163.9755 C.3     1  UNL1        0.2542
     17 O         139.4713  144.0424  163.7611 O.3     1  UNL1       -0.4563
     18 C         142.3818  142.0219  162.0638 C.ar    1  UNL1       -0.0157
     19 C         143.6354  142.3011  162.8385 C.ar    1  UNL1       -0.0039
     20 C         144.9137  142.6023  162.1137 C.ar    1  UNL1       -0.0003
     21 C         144.9383  142.6242  160.6141 C.ar    1  UNL1       -0.0000
     22 C         143.6846  142.3450  159.8393 C.ar    1  UNL1       -0.0003
     23 C         142.4063  142.0439  160.5641 C.ar    1  UNL1       -0.0039
     24 C         139.9364  141.1446  162.0430 C.3     1  UNL1        0.1158
     25 O         139.5861  142.5117  161.5349 O.3     1  UNL1       -0.3820
     26 H         138.6614  142.5207  161.2422 H       1  UNL1        0.2107
     27 C         140.2867  139.7775  162.5512 C.ar    1  UNL1        0.0024
     28 C         141.3326  138.9620  161.8502 C.ar    1  UNL1       -0.0020
     29 C         141.6829  137.5949  162.3583 C.ar    1  UNL1       -0.0002
     30 C         140.9874  137.0432  163.5675 C.ar    1  UNL1       -0.0000
     31 C         139.9417  137.8586  164.2684 C.ar    1  UNL1       -0.0002
     32 C         139.2462  137.3069  165.4775 C.ar    1  UNL1       -0.0000
     33 C         138.2004  138.1224  166.1785 C.ar    1  UNL1       -0.0000
     34 C         137.8500  139.4895  165.6704 C.ar    1  UNL1       -0.0000
     35 C         138.5455  140.0412  164.4613 C.ar    1  UNL1       -0.0002
     36 C         139.5913  139.2258  163.7603 C.ar    1  UNL1       -0.0018
     37 C         138.7693  140.5684  161.2975 C.3     1  UNL1        0.0491
     38 C         138.0636  141.3891  160.2591 C.3     1  UNL1        0.0750
     39 N         138.5311  141.3588  158.8340 N.3     1  UNL1       -0.2702
     40 C         138.1431  142.4613  157.8938 C.3     1  UNL1        0.0897
     41 C         139.3866  140.2261  158.3493 C.3     1  UNL1        0.0897
@<TRIPOS>BOND
     1    16    17    1
     2    17     2    1
     3     2     3   ar
     4     3     4   ar
     5     4     5   ar
     6     5     6   ar
     7     6     7   ar
     8     7    12    1
     9    12    13    2
    10    13    14    1
    11     7     8   ar
    12     8     9   ar
    13     9    10   ar
    14    10    11   ar
    15    11     1    1
    16     1    18    1
    17    18    19   ar
    18    19    20   ar
    19    20    21   ar
    20    21    22   ar
    21    22    23   ar
    22     1    24    1
    23    24    25    1
    24    24    37    1
    25    37    38    1
    26    38    39    1
    27    39    40    1
    28    39    41    1
    29    24    27    1
    30    27    28   ar
    31    28    29   ar
    32    29    30   ar
    33    30    31   ar
    34    31    32   ar
    35    32    33   ar
    36    33    34   ar
    37    34    35   ar
    38    35    36   ar
    39    11     2   ar
    40    23    18   ar
    41    36    27   ar
    42     9     4   ar
    43    36    31   ar
    44    14    15    1
    45    25    26    1
@<TRIPOS>MOLECULE
*****
 41 45 0 0 0
SMALL
GASTEIGER

@<TRIPOS>ATOM
      1 C         140.8080  141.4358  162.6777 C.3     1  UNL1        0.0776
      2 C         139.6427  142.8543  164.5163 C.ar    1  UNL1        0.2211
      3 N         139.5445  143.3016  165.9447 N.ar    1  UNL1       -0.2119
      4 C         140.5133  142.7776  166.9630 C.ar    1  UNL1        0.0844
      5 C         140.4150  143.2249  168.3914 C.ar    1  UNL1        0.0193
      6 C         141.3838  142.7009  169.4096 C.ar    1  UNL1        0.0032
      7 C         142.4508  141.7297  168.9995 C.ar    1  UNL1        0.0225
      8 C         142.5491  141.2824  167.5712 C.ar    1  UNL1        0.0031
      9 C         141.5803  141.8064  166.5529 C.ar    1  UNL1        0.0177
     10 C         141.6785  141.3591  165.1245 C.ar    1  UNL1        0.0022
     11 C         140.7098  141.8831  164.1062 C.ar    1  UNL1        0.0373
     12 C         143.4196  141.2057  170.0179 C.2     1  UNL1        0.1398
     13 N         143.2455  139.8252  170.5780 N.2     1  UNL1       -0.0847
     14 O         144.2143  139.3013  171.5964 O.2     1  UNL1       -0.4087
     15 H         144.1055  138.4389  171.9463 H       1  UNL1        0.3278
     16 C         138.6654  144.8379  163.1523 C.3     1  UNL1        0.2542
     17 O         138.6739  143.3783  163.4979 O.3     1  UNL1       -0.4563
     18 C         139.8089  140.4623  162.1263 C.ar    1  UNL1       -0.0157
     19 C         139.7381  139.0683  162.6755 C.ar    1  UNL1       -0.0039
     20 C         138.7390  138.0948  162.1240 C.ar    1  UNL1       -0.0003
     21 C         137.8107  138.5153  161.0234 C.ar    1  UNL1       -0.0000
     22 C         137.8815  139.9094  160.4741 C.ar    1  UNL1       -0.0003
     23 C         138.8806  140.8829  161.0256 C.ar    1  UNL1       -0.0039
     24 C         141.9053  141.9621  161.8008 C.3     1  UNL1        0.1158
     25 O         141.3723  143.3540  161.9693 O.3     1  UNL1       -0.3820
     26 H         141.7092  143.9178  161.2555 H       1  UNL1        0.2107
     27 C         142.4382  140.5701  161.6324 C.ar    1  UNL1        0.0024
     28 C         143.1065  139.8785  162.7835 C.ar    1  UNL1       -0.0020
     29 C         143.6395  138.4865  162.6150 C.ar    1  UNL1       -0.0002
     30 C         143.5041  137.7862  161.2955 C.ar    1  UNL1       -0.0000
     31 C         142.8359  138.4778  160.1444 C.ar    1  UNL1       -0.0002
     32 C         142.7005  137.7774  158.8249 C.ar    1  UNL1       -0.0000
     33 C         142.0322  138.4691  157.6738 C.ar    1  UNL1       -0.0000
     34 C         141.4992  139.8610  157.8422 C.ar    1  UNL1       -0.0000
     35 C         141.6346  140.5614  159.1618 C.ar    1  UNL1       -0.0002
     36 C         142.3029  139.8698  160.3128 C.ar    1  UNL1       -0.0018
     37 C         143.0025  142.4883  160.9239 C.3     1  UNL1        0.0491
     38 C         144.3161  142.8908  161.5262 C.3     1  UNL1        0.0750
     39 N         144.3579  143.4984  162.8970 N.3     1  UNL1       -0.2702
     40 C         143.9106  144.9153  163.1033 C.3     1  UNL1        0.0897
     41 C         144.8469  142.6893  164.0614 C.3     1  UNL1        0.0897
@<TRIPOS>BOND
     1    16    17    1
     2    17     2    1
     3     2     3   ar
     4     3     4   ar
     5     4     5   ar
     6     5     6   ar
     7     6     7   ar
     8     7    12    1
     9    12    13    2
    10    13    14    1
    11     7     8   ar
    12     8     9   ar
    13     9    10   ar
    14    10    11   ar
    15    11     1    1
    16     1    18    1
    17    18    19   ar
    18    19    20   ar
    19    20    21   ar
    20    21    22   ar
    21    22    23   ar
    22     1    24    1
    23    24    25    1
    24    24    37    1
    25    37    38    1
    26    38    39    1
    27    39    40    1
    28    39    41    1
    29    24    27    1
    30    27    28   ar
    31    28    29   ar
    32    29    30   ar
    33    30    31   ar
    34    31    32   ar
    35    32    33   ar
    36    33    34   ar
    37    34    35   ar
    38    35    36   ar
    39    11     2   ar
    40    23    18   ar
    41    36    27   ar
    42     9     4   ar
    43    36    31   ar
    44    14    15    1
    45    25    26    1
@<TRIPOS>MOLECULE
*****
 41 45 0 0 0
SMALL
GASTEIGER

@<TRIPOS>ATOM
      1 C         141.6004  140.4988  165.6767 C.3     1  UNL1        0.0776
      2 C         139.2814  139.5195  165.0337 C.ar    1  UNL1        0.2211
      3 N         138.2358  139.2291  163.9982 N.ar    1  UNL1       -0.2119
      4 C         138.4635  139.6275  162.5701 C.ar    1  UNL1        0.0844
      5 C         137.4179  139.3370  161.5346 C.ar    1  UNL1        0.0193
      6 C         137.6456  139.7354  160.1065 C.ar    1  UNL1        0.0032
      7 C         138.9190  140.4242  159.7140 C.ar    1  UNL1        0.0225
      8 C         139.9646  140.7146  160.7494 C.ar    1  UNL1        0.0031
      9 C         139.7369  140.3163  162.1775 C.ar    1  UNL1        0.0177
     10 C         140.7825  140.6067  163.2131 C.ar    1  UNL1        0.0022
     11 C         140.5547  140.2084  164.6411 C.ar    1  UNL1        0.0373
     12 C         139.1467  140.8226  158.2858 C.2     1  UNL1        0.1398
     13 N         138.3596  140.1674  157.1898 N.2     1  UNL1       -0.0847
     14 O         138.5873  140.5658  155.7617 O.2     1  UNL1       -0.4087
     15 H         138.0956  140.1566  155.0770 H       1  UNL1        0.3278
     16 C         137.7353  138.5383  166.8768 C.3     1  UNL1        0.2542
     17 O         139.0537  139.1212  166.4619 O.3     1  UNL1       -0.4563
     18 C         142.8809  139.7177  165.6891 C.ar    1  UNL1       -0.0157
     19 C         143.9585  140.0282  164.6929 C.ar    1  UNL1       -0.0039
     20 C         145.2390  139.2471  164.7054 C.ar    1  UNL1       -0.0003
     21 C         145.4420  138.1556  165.7140 C.ar    1  UNL1       -0.0000
     22 C         144.3644  137.8451  166.7102 C.ar    1  UNL1       -0.0003
     23 C         143.0839  138.6262  166.6978 C.ar    1  UNL1       -0.0039
     24 C         141.3654  141.5702  166.6998 C.3     1  UNL1        0.1158
     25 O         140.9927  140.5249  167.7089 O.3     1  UNL1       -0.3820
     26 H         140.4842  140.9347  168.4261 H       1  UNL1        0.2107
     27 C         141.7382  142.6155  165.6907 C.ar    1  UNL1        0.0024
     28 C         143.1829  142.9179  165.4228 C.ar    1  UNL1       -0.0020
     29 C         143.5557  143.9632  164.4137 C.ar    1  UNL1       -0.0002
     30 C         142.4839  144.7062  163.6725 C.ar    1  UNL1       -0.0000
     31 C         141.0394  144.4039  163.9404 C.ar    1  UNL1       -0.0002
     32 C         139.9676  145.1468  163.1992 C.ar    1  UNL1       -0.0000
     33 C         138.5230  144.8445  163.4672 C.ar    1  UNL1       -0.0000
     34 C         138.1502  143.7992  164.4763 C.ar    1  UNL1       -0.0000
     35 C         139.2219  143.0562  165.2175 C.ar    1  UNL1       -0.0002
     36 C         140.6665  143.3585  164.9496 C.ar    1  UNL1       -0.0018
     37 C         141.1305  142.6417  167.7229 C.3     1  UNL1        0.0491
     38 C         141.8381  142.5850  169.0443 C.3     1  UNL1        0.0750
     39 N         141.0920  142.1689  170.2774 N.3     1  UNL1       -0.2702
     40 C         139.7856  142.8219  170.6196 C.3     1  UNL1        0.0897
     41 C         141.6522  141.1000  171.1681 C.3     1  UNL1        0.0897
@<TRIPOS>BOND
     1    16    17    1
     2    17     2    1
     3     2     3   ar
     4     3     4   ar
     5     4     5   ar
     6     5     6   ar
     7     6     7   ar
     8     7    12    1
     9    12    13    2
    10    13    14    1
    11     7     8   ar
    12     8     9   ar
    13     9    10   ar
    14    10    11   ar
    15    11     1    1
    16     1    18    1
    17    18    19   ar
    18    19    20   ar
    19    20    21   ar
    20    21    22   ar
    21    22    23   ar
    22     1    24    1
    23    24    25    1
    24    24    37    1
    25    37    38    1
    26    38    39    1
    27    39    40    1
    28    39    41    1
    29    24    27    1
    30    27    28   ar
    31    28    29   ar
    32    29    30   ar
    33    30    31   ar
    34    31    32   ar
    35    32    33   ar
    36    33    34   ar
    37    34    35   ar
    38    35    36   ar
    39    11     2   ar
    40    23    18   ar
    41    36    27   ar
    42     9     4   ar
    43    36    31   ar
    44    14    15    1
    45    25    26    1
