@<TRIPOS>MOLECULE
*****
 30 34 0 0 0
SMALL
GASTEIGER

@<TRIPOS>ATOM
      1 C         142.7071  140.5991  170.5472 C.ar    1  UNL1        0.1353
      2 C         142.5423  140.5111  169.0589 C.ar    1  UNL1        0.0346
      3 C         141.3489  141.1352  168.3982 C.ar    1  UNL1        0.0058
      4 C         140.3205  141.8473  169.2259 C.ar    1  UNL1        0.0208
      5 C         140.4853  141.9354  170.7142 C.ar    1  UNL1        0.1003
      6 N         141.6786  141.3113  171.3749 N.ar    1  UNL1       -0.2290
      7 C         141.1841  141.0472  166.9099 C.ar    1  UNL1        0.0192
      8 C         140.0688  140.3530  166.1859 C.ar    1  UNL1        0.0801
      9 N         140.3011  140.5147  164.7128 N.ar    1  UNL1       -0.3035
     10 C         141.5600  141.3087  164.5264 C.ar    1  UNL1        0.0832
     11 C         142.2799  141.7746  163.2957 C.ar    1  UNL1        0.1163
     12 N         143.5455  142.5695  163.4229 N.ar    1  UNL1       -0.2408
     13 C         144.0912  142.8986  164.7808 C.ar    1  UNL1        0.0990
     14 C         143.3713  142.4327  166.0115 C.ar    1  UNL1        0.0222
     15 C         142.1057  141.6378  165.8843 C.ar    1  UNL1        0.0206
     16 C         139.4278  139.9768  163.6182 C.ar    1  UNL1        0.0641
     17 C         138.6658  140.9198  162.7349 C.ar    1  UNL1        0.0175
     18 C         137.7925  140.3818  161.6403 C.ar    1  UNL1        0.0015
     19 C         137.6813  138.9010  161.4291 C.ar    1  UNL1        0.0001
     20 C         138.4433  137.9581  162.3123 C.ar    1  UNL1        0.0015
     21 C         139.3165  138.4960  163.4069 C.ar    1  UNL1        0.0175
     22 O         142.9981  137.6139  170.6066 O.2     1  UNL1       -0.2525
     23 C         144.0459  138.4823  171.2375 C.2     1  UNL1        0.3055
     24 N         143.9004  139.9750  171.2078 N.am    1  UNL1       -0.2537
     25 N         145.2393  137.8581  171.8981 N.am    1  UNL1       -0.2903
     26 H         144.5881  140.5449  171.6219 H       1  UNL1        0.1578
     27 H         145.9270  138.4280  172.3122 H       1  UNL1        0.1509
     28 C         145.3847  136.3654  171.9278 C.3     1  UNL1        0.0732
     29 C         146.0602  135.1364  172.4601 C.3     1  UNL1        0.0213
     30 C         144.9613  135.0092  171.4470 C.3     1  UNL1        0.0213
@<TRIPOS>BOND
     1    22    23    2
     2    23    24   am
     3    24     1    1
     4     1     2   ar
     5     2     3   ar
     6     3     7    1
     7     7     8   ar
     8     8     9   ar
     9     9    16    1
    10    16    17   ar
    11    17    18   ar
    12    18    19   ar
    13    19    20   ar
    14    20    21   ar
    15     9    10   ar
    16    10    11   ar
    17    11    12   ar
    18    12    13   ar
    19    13    14   ar
    20    14    15   ar
    21     3     4   ar
    22     4     5   ar
    23     5     6   ar
    24    23    25   am
    25    25    28    1
    26    28    29    1
    27    29    30    1
    28     6     1   ar
    29    30    28    1
    30    15     7   ar
    31    21    16   ar
    32    15    10   ar
    33    24    26    1
    34    25    27    1
@<TRIPOS>MOLECULE
*****
 30 34 0 0 0
SMALL
GASTEIGER

@<TRIPOS>ATOM
      1 C         142.1224  139.9940  170.1104 C.ar    1  UNL1        0.1353
      2 C         142.2884  140.1140  168.6244 C.ar    1  UNL1        0.0346
      3 C         141.0878  140.3249  167.7502 C.ar    1  UNL1        0.0058
      4 C         139.7213  140.4159  168.3620 C.ar    1  UNL1        0.0208
      5 C         139.5553  140.2959  169.8480 C.ar    1  UNL1        0.1003
      6 N         140.7558  140.0850  170.7221 N.ar    1  UNL1       -0.2290
      7 C         141.2538  140.4449  166.2642 C.ar    1  UNL1        0.0192
      8 C         141.7373  139.3660  165.3411 C.ar    1  UNL1        0.0801
      9 N         141.7478  139.9192  163.9469 N.ar    1  UNL1       -0.3035
     10 C         141.2707  141.3400  164.0083 C.ar    1  UNL1        0.0832
     11 C         141.0748  142.3798  162.9452 C.ar    1  UNL1        0.1163
     12 N         140.5736  143.7445  163.3142 N.ar    1  UNL1       -0.2408
     13 C         140.2683  144.0694  164.7464 C.ar    1  UNL1        0.0990
     14 C         140.4642  143.0296  165.8096 C.ar    1  UNL1        0.0222
     15 C         140.9654  141.6649  165.4405 C.ar    1  UNL1        0.0206
     16 C         142.1625  139.1812  162.7086 C.ar    1  UNL1        0.0641
     17 C         143.5438  138.6052  162.6060 C.ar    1  UNL1        0.0175
     18 C         143.9585  137.8671  161.3677 C.ar    1  UNL1        0.0015
     19 C         142.9921  137.7051  160.2321 C.ar    1  UNL1        0.0001
     20 C         141.6109  138.2811  160.3347 C.ar    1  UNL1        0.0015
     21 C         141.1961  139.0191  161.5730 C.ar    1  UNL1        0.0175
     22 O         143.3373  137.2621  170.3562 O.2     1  UNL1       -0.2525
     23 C         143.9304  138.4171  171.1074 C.2     1  UNL1        0.3055
     24 N         143.3230  139.7831  170.9845 N.am    1  UNL1       -0.2537
     25 N         145.1311  138.2061  171.9815 N.am    1  UNL1       -0.2903
     26 H         143.7122  140.5411  171.4775 H       1  UNL1        0.1578
     27 H         145.5204  138.9641  172.4745 H       1  UNL1        0.1509
     28 C         145.7386  136.8401  172.1044 C.3     1  UNL1        0.0732
     29 C         145.5817  135.3498  172.1703 C.3     1  UNL1        0.0213
     30 C         146.9476  135.9645  172.2514 C.3     1  UNL1        0.0213
@<TRIPOS>BOND
     1    22    23    2
     2    23    24   am
     3    24     1    1
     4     1     2   ar
     5     2     3   ar
     6     3     7    1
     7     7     8   ar
     8     8     9   ar
     9     9    16    1
    10    16    17   ar
    11    17    18   ar
    12    18    19   ar
    13    19    20   ar
    14    20    21   ar
    15     9    10   ar
    16    10    11   ar
    17    11    12   ar
    18    12    13   ar
    19    13    14   ar
    20    14    15   ar
    21     3     4   ar
    22     4     5   ar
    23     5     6   ar
    24    23    25   am
    25    25    28    1
    26    28    29    1
    27    29    30    1
    28     6     1   ar
    29    30    28    1
    30    15     7   ar
    31    21    16   ar
    32    15    10   ar
    33    24    26    1
    34    25    27    1
@<TRIPOS>MOLECULE
*****
 30 34 0 0 0
SMALL
GASTEIGER

@<TRIPOS>ATOM
      1 C         139.9073  140.4140  170.4030 C.ar    1  UNL1        0.1353
      2 C         140.0123  140.2330  168.9177 C.ar    1  UNL1        0.0346
      3 C         140.2777  141.4163  168.0348 C.ar    1  UNL1        0.0058
      4 C         140.4382  142.7805  168.6373 C.ar    1  UNL1        0.0208
      5 C         140.3333  142.9615  170.1226 C.ar    1  UNL1        0.1003
      6 N         140.0679  141.7783  171.0055 N.ar    1  UNL1       -0.2290
      7 C         140.3826  141.2352  166.5494 C.ar    1  UNL1        0.0192
      8 C         139.2759  140.8039  165.6334 C.ar    1  UNL1        0.0801
      9 N         139.8220  140.7558  164.2372 N.ar    1  UNL1       -0.3035
     10 C         141.2663  141.1575  164.2903 C.ar    1  UNL1        0.0832
     11 C         142.3106  141.2917  163.2220 C.ar    1  UNL1        0.1163
     12 N         143.7015  141.7221  163.5828 N.ar    1  UNL1       -0.2408
     13 C         144.0480  142.0184  165.0118 C.ar    1  UNL1        0.0990
     14 C         143.0036  141.8842  166.0801 C.ar    1  UNL1        0.0222
     15 C         141.6128  141.4537  165.7193 C.ar    1  UNL1        0.0206
     16 C         139.0580  140.3733  163.0043 C.ar    1  UNL1        0.0641
     17 C         138.4667  138.9999  162.8844 C.ar    1  UNL1        0.0175
     18 C         137.7027  138.6174  161.6515 C.ar    1  UNL1        0.0015
     19 C         137.5300  139.6081  160.5386 C.ar    1  UNL1        0.0001
     20 C         138.1213  140.9814  160.6586 C.ar    1  UNL1        0.0015
     21 C         138.8853  141.3640  161.8914 C.ar    1  UNL1        0.0175
     22 O         137.0850  139.5860  170.9929 O.2     1  UNL1       -0.2525
     23 C         138.2307  138.8167  171.5808 C.2     1  UNL1        0.3055
     24 N         139.6419  139.2307  171.2858 N.am    1  UNL1       -0.2537
     25 N         137.9651  137.6334  172.4636 N.am    1  UNL1       -0.2903
     26 H         140.3939  138.7258  171.6716 H       1  UNL1        0.1578
     27 H         138.7171  137.1285  172.8494 H       1  UNL1        0.1509
     28 C         136.5539  137.2194  172.7586 C.3     1  UNL1        0.0732
     29 C         135.0921  137.5477  172.8317 C.3     1  UNL1        0.0213
     30 C         135.5714  136.1739  173.1963 C.3     1  UNL1        0.0213
@<TRIPOS>BOND
     1    22    23    2
     2    23    24   am
     3    24     1    1
     4     1     2   ar
     5     2     3   ar
     6     3     7    1
     7     7     8   ar
     8     8     9   ar
     9     9    16    1
    10    16    17   ar
    11    17    18   ar
    12    18    19   ar
    13    19    20   ar
    14    20    21   ar
    15     9    10   ar
    16    10    11   ar
    17    11    12   ar
    18    12    13   ar
    19    13    14   ar
    20    14    15   ar
    21     3     4   ar
    22     4     5   ar
    23     5     6   ar
    24    23    25   am
    25    25    28    1
    26    28    29    1
    27    29    30    1
    28     6     1   ar
    29    30    28    1
    30    15     7   ar
    31    21    16   ar
    32    15    10   ar
    33    24    26    1
    34    25    27    1
@<TRIPOS>MOLECULE
*****
 30 34 0 0 0
SMALL
GASTEIGER

@<TRIPOS>ATOM
      1 C         140.4687  142.9285  170.3229 C.ar    1  UNL1        0.1353
      2 C         140.3048  142.5113  168.8915 C.ar    1  UNL1        0.0346
      3 C         141.5131  142.2108  168.0548 C.ar    1  UNL1        0.0058
      4 C         142.8851  142.3275  168.6497 C.ar    1  UNL1        0.0208
      5 C         143.0489  142.7448  170.0811 C.ar    1  UNL1        0.1003
      6 N         141.8408  143.0452  170.9178 N.ar    1  UNL1       -0.2290
      7 C         141.3492  141.7936  166.6233 C.ar    1  UNL1        0.0192
      8 C         140.2361  140.9528  166.0719 C.ar    1  UNL1        0.0801
      9 N         140.4687  140.7836  164.5998 N.ar    1  UNL1       -0.3035
     10 C         141.7255  141.5197  164.2413 C.ar    1  UNL1        0.0832
     11 C         142.4447  141.7022  162.9377 C.ar    1  UNL1        0.1163
     12 N         143.7081  142.5090  162.8848 N.ar    1  UNL1       -0.2408
     13 C         144.2524  143.1332  164.1355 C.ar    1  UNL1        0.0990
     14 C         143.5332  142.9507  165.4391 C.ar    1  UNL1        0.0222
     15 C         142.2698  142.1439  165.4920 C.ar    1  UNL1        0.0206
     16 C         139.5974  140.0134  163.6523 C.ar    1  UNL1        0.0641
     17 C         139.5944  138.5137  163.6868 C.ar    1  UNL1        0.0175
     18 C         138.7231  137.7435  162.7393 C.ar    1  UNL1        0.0015
     19 C         137.8548  138.4728  161.7574 C.ar    1  UNL1        0.0001
     20 C         137.8579  139.9724  161.7230 C.ar    1  UNL1        0.0015
     21 C         138.7292  140.7426  162.6704 C.ar    1  UNL1        0.0175
     22 O         139.6679  145.7741  170.8336 O.2     1  UNL1       -0.2525
     23 C         138.8601  144.6518  171.4148 C.2     1  UNL1        0.3055
     24 N         139.2605  143.2289  171.1595 N.am    1  UNL1       -0.2537
     25 N         137.6518  144.9523  172.2514 N.am    1  UNL1       -0.2903
     26 H         138.7303  142.4923  171.5410 H       1  UNL1        0.1578
     27 H         137.1216  144.2157  172.6329 H       1  UNL1        0.1509
     28 C         137.2514  146.3752  172.5068 C.3     1  UNL1        0.0732
     29 C         136.2355  147.3749  172.9744 C.3     1  UNL1        0.0213
     30 C         137.5737  147.8399  172.4815 C.3     1  UNL1        0.0213
@<TRIPOS>BOND
     1    22    23    2
     2    23    24   am
     3    24     1    1
     4     1     2   ar
     5     2     3   ar
     6     3     7    1
     7     7     8   ar
     8     8     9   ar
     9     9    16    1
    10    16    17   ar
    11    17    18   ar
    12    18    19   ar
    13    19    20   ar
    14    20    21   ar
    15     9    10   ar
    16    10    11   ar
    17    11    12   ar
    18    12    13   ar
    19    13    14   ar
    20    14    15   ar
    21     3     4   ar
    22     4     5   ar
    23     5     6   ar
    24    23    25   am
    25    25    28    1
    26    28    29    1
    27    29    30    1
    28     6     1   ar
    29    30    28    1
    30    15     7   ar
    31    21    16   ar
    32    15    10   ar
    33    24    26    1
    34    25    27    1
@<TRIPOS>MOLECULE
*****
 30 34 0 0 0
SMALL
GASTEIGER

@<TRIPOS>ATOM
      1 C         139.9259  140.6483  170.3015 C.ar    1  UNL1        0.1353
      2 C         140.2093  140.5485  168.8319 C.ar    1  UNL1        0.0346
      3 C         140.4759  141.7901  168.0334 C.ar    1  UNL1        0.0058
      4 C         140.4591  143.1313  168.7046 C.ar    1  UNL1        0.0208
      5 C         140.1757  143.2312  170.1742 C.ar    1  UNL1        0.1003
      6 N         139.9091  141.9897  170.9727 N.ar    1  UNL1       -0.2290
      7 C         140.7593  141.6903  166.5638 C.ar    1  UNL1        0.0192
      8 C         141.5878  140.6335  165.8955 C.ar    1  UNL1        0.0801
      9 N         141.6045  140.9198  164.4231 N.ar    1  UNL1       -0.3035
     10 C         140.7862  142.1536  164.1816 C.ar    1  UNL1        0.0832
     11 C         140.4493  142.9049  162.9278 C.ar    1  UNL1        0.1163
     12 N         139.5901  144.1324  162.9971 N.ar    1  UNL1       -0.2408
     13 C         139.0677  144.6086  164.3201 C.ar    1  UNL1        0.0990
     14 C         139.4046  143.8572  165.5739 C.ar    1  UNL1        0.0222
     15 C         140.2639  142.6297  165.5046 C.ar    1  UNL1        0.0206
     16 C         142.3147  140.1139  163.3762 C.ar    1  UNL1        0.0641
     17 C         143.5350  140.6683  162.7027 C.ar    1  UNL1        0.0175
     18 C         144.2452  139.8624  161.6557 C.ar    1  UNL1        0.0015
     19 C         143.7351  138.5021  161.2822 C.ar    1  UNL1        0.0001
     20 C         142.5149  137.9478  161.9557 C.ar    1  UNL1        0.0015
     21 C         141.8047  138.7537  163.0026 C.ar    1  UNL1        0.0175
     22 O         137.1083  139.8885  170.9968 O.2     1  UNL1       -0.2525
     23 C         138.2504  139.0268  171.4475 C.2     1  UNL1        0.3055
     24 N         139.6593  139.4067  171.0998 N.am    1  UNL1       -0.2537
     25 N         137.9837  137.7852  172.2459 N.am    1  UNL1       -0.2903
     26 H         140.4089  138.8412  171.3956 H       1  UNL1        0.1578
     27 H         138.7333  137.2197  172.5417 H       1  UNL1        0.1509
     28 C         136.5749  137.4053  172.5936 C.3     1  UNL1        0.0732
     29 C         135.1164  137.7487  172.6634 C.3     1  UNL1        0.0213
     30 C         135.5932  136.4038  173.1259 C.3     1  UNL1        0.0213
@<TRIPOS>BOND
     1    22    23    2
     2    23    24   am
     3    24     1    1
     4     1     2   ar
     5     2     3   ar
     6     3     7    1
     7     7     8   ar
     8     8     9   ar
     9     9    16    1
    10    16    17   ar
    11    17    18   ar
    12    18    19   ar
    13    19    20   ar
    14    20    21   ar
    15     9    10   ar
    16    10    11   ar
    17    11    12   ar
    18    12    13   ar
    19    13    14   ar
    20    14    15   ar
    21     3     4   ar
    22     4     5   ar
    23     5     6   ar
    24    23    25   am
    25    25    28    1
    26    28    29    1
    27    29    30    1
    28     6     1   ar
    29    30    28    1
    30    15     7   ar
    31    21    16   ar
    32    15    10   ar
    33    24    26    1
    34    25    27    1
@<TRIPOS>MOLECULE
*****
 30 34 0 0 0
SMALL
GASTEIGER

@<TRIPOS>ATOM
      1 C         142.7093  140.5901  170.5238 C.ar    1  UNL1        0.1353
      2 C         142.6529  140.7275  169.0312 C.ar    1  UNL1        0.0346
      3 C         141.4644  141.3724  168.3817 C.ar    1  UNL1        0.0058
      4 C         140.3325  141.8799  169.2250 C.ar    1  UNL1        0.0208
      5 C         140.3890  141.7425  170.7176 C.ar    1  UNL1        0.1003
      6 N         141.5774  141.0976  171.3670 N.ar    1  UNL1       -0.2290
      7 C         141.4080  141.5098  166.8891 C.ar    1  UNL1        0.0192
      8 C         141.1026  142.7672  166.1304 C.ar    1  UNL1        0.0801
      9 N         141.1529  142.4484  164.6655 N.ar    1  UNL1       -0.3035
     10 C         141.4894  140.9940  164.5189 C.ar    1  UNL1        0.0832
     11 C         141.6726  140.1229  163.3116 C.ar    1  UNL1        0.1163
     12 N         142.0134  138.6718  163.4786 N.ar    1  UNL1       -0.2408
     13 C         142.1711  138.0917  164.8529 C.ar    1  UNL1        0.0990
     14 C         141.9879  138.9628  166.0602 C.ar    1  UNL1        0.0222
     15 C         141.6470  140.4139  165.8932 C.ar    1  UNL1        0.0206
     16 C         140.9095  143.4144  163.5441 C.ar    1  UNL1        0.0641
     17 C         141.9735  143.6507  162.5134 C.ar    1  UNL1        0.0175
     18 C         141.7301  144.6167  161.3920 C.ar    1  UNL1        0.0015
     19 C         140.4227  145.3464  161.3012 C.ar    1  UNL1        0.0001
     20 C         139.3588  145.1101  162.3318 C.ar    1  UNL1        0.0015
     21 C         139.6022  144.1441  163.4532 C.ar    1  UNL1        0.0175
     22 O         142.9323  137.5997  170.6103 O.2     1  UNL1       -0.2525
     23 C         144.0092  138.4499  171.2164 C.2     1  UNL1        0.3055
     24 N         143.8978  139.9451  171.1731 N.am    1  UNL1       -0.2537
     25 N         145.1977  137.8048  171.8657 N.am    1  UNL1       -0.2903
     26 H         144.6046  140.5032  171.5709 H       1  UNL1        0.1578
     27 H         145.9045  138.3629  172.2635 H       1  UNL1        0.1509
     28 C         145.3092  136.3096  171.9090 C.3     1  UNL1        0.0732
     29 C         145.9052  135.0681  172.5033 C.3     1  UNL1        0.0213
     30 C         144.9061  134.9614  171.3895 C.3     1  UNL1        0.0213
@<TRIPOS>BOND
     1    22    23    2
     2    23    24   am
     3    24     1    1
     4     1     2   ar
     5     2     3   ar
     6     3     7    1
     7     7     8   ar
     8     8     9   ar
     9     9    16    1
    10    16    17   ar
    11    17    18   ar
    12    18    19   ar
    13    19    20   ar
    14    20    21   ar
    15     9    10   ar
    16    10    11   ar
    17    11    12   ar
    18    12    13   ar
    19    13    14   ar
    20    14    15   ar
    21     3     4   ar
    22     4     5   ar
    23     5     6   ar
    24    23    25   am
    25    25    28    1
    26    28    29    1
    27    29    30    1
    28     6     1   ar
    29    30    28    1
    30    15     7   ar
    31    21    16   ar
    32    15    10   ar
    33    24    26    1
    34    25    27    1
@<TRIPOS>MOLECULE
*****
 30 34 0 0 0
SMALL
GASTEIGER

@<TRIPOS>ATOM
      1 C         140.7674  144.8819  161.3082 C.ar    1  UNL1        0.1353
      2 C         140.8878  143.6730  162.1881 C.ar    1  UNL1        0.0346
      3 C         139.8277  143.3790  163.2079 C.ar    1  UNL1        0.0058
      4 C         138.6474  144.2939  163.3477 C.ar    1  UNL1        0.0208
      5 C         138.5270  145.5028  162.4679 C.ar    1  UNL1        0.1003
      6 N         139.5870  145.7968  161.4482 N.ar    1  UNL1       -0.2290
      7 C         139.9481  142.1701  164.0877 C.ar    1  UNL1        0.0192
      8 C         140.5285  142.1403  165.4705 C.ar    1  UNL1        0.0801
      9 N         140.4483  140.7305  165.9766 N.ar    1  UNL1       -0.3035
     10 C         139.8183  139.8890  164.9065 C.ar    1  UNL1        0.0832
     11 C         139.4863  138.4276  164.8443 C.ar    1  UNL1        0.1163
     12 N         138.8450  137.8559  163.6147 N.ar    1  UNL1       -0.2408
     13 C         138.5359  138.7456  162.4473 C.ar    1  UNL1        0.0990
     14 C         138.8680  140.2070  162.5095 C.ar    1  UNL1        0.0222
     15 C         139.5092  140.7788  163.7391 C.ar    1  UNL1        0.0206
     16 C         140.9160  140.2471  167.3173 C.ar    1  UNL1        0.0641
     17 C         140.0303  140.3954  168.5189 C.ar    1  UNL1        0.0175
     18 C         140.4980  139.9120  169.8596 C.ar    1  UNL1        0.0015
     19 C         141.8513  139.2802  169.9988 C.ar    1  UNL1        0.0001
     20 C         142.7369  139.1319  168.7973 C.ar    1  UNL1        0.0015
     21 C         142.2693  139.6154  167.4566 C.ar    1  UNL1        0.0175
     22 O         140.1049  144.7809  158.3841 O.2     1  UNL1       -0.2525
     23 C         141.4962  145.1253  158.8265 C.2     1  UNL1        0.3055
     24 N         141.8275  145.1758  160.2885 N.am    1  UNL1       -0.2537
     25 N         142.5563  145.4193  157.8066 N.am    1  UNL1       -0.2903
     26 H         142.7406  145.4019  160.5789 H       1  UNL1        0.1578
     27 H         143.4695  145.6453  158.0969 H       1  UNL1        0.1509
     28 C         142.2250  145.3688  156.3445 C.3     1  UNL1        0.0732
     29 C         142.5954  144.9911  154.9409 C.3     1  UNL1        0.0213
     30 C         141.2808  145.6590  155.2157 C.3     1  UNL1        0.0213
@<TRIPOS>BOND
     1    22    23    2
     2    23    24   am
     3    24     1    1
     4     1     2   ar
     5     2     3   ar
     6     3     7    1
     7     7     8   ar
     8     8     9   ar
     9     9    16    1
    10    16    17   ar
    11    17    18   ar
    12    18    19   ar
    13    19    20   ar
    14    20    21   ar
    15     9    10   ar
    16    10    11   ar
    17    11    12   ar
    18    12    13   ar
    19    13    14   ar
    20    14    15   ar
    21     3     4   ar
    22     4     5   ar
    23     5     6   ar
    24    23    25   am
    25    25    28    1
    26    28    29    1
    27    29    30    1
    28     6     1   ar
    29    30    28    1
    30    15     7   ar
    31    21    16   ar
    32    15    10   ar
    33    24    26    1
    34    25    27    1
@<TRIPOS>MOLECULE
*****
 30 34 0 0 0
SMALL
GASTEIGER

@<TRIPOS>ATOM
      1 C         136.3365  140.7183  156.0501 C.ar    1  UNL1        0.1353
      2 C         136.8895  141.6256  157.1089 C.ar    1  UNL1        0.0346
      3 C         138.3138  141.4765  157.5554 C.ar    1  UNL1        0.0058
      4 C         139.1850  140.4202  156.9430 C.ar    1  UNL1        0.0208
      5 C         138.6320  139.5128  155.8843 C.ar    1  UNL1        0.1003
      6 N         137.2078  139.6619  155.4378 N.ar    1  UNL1       -0.2290
      7 C         138.8668  142.3839  158.6141 C.ar    1  UNL1        0.0192
      8 C         138.4878  142.3789  160.0654 C.ar    1  UNL1        0.0801
      9 N         139.2827  143.4474  160.7557 N.ar    1  UNL1       -0.3035
     10 C         140.1529  144.1128  159.7310 C.ar    1  UNL1        0.0832
     11 C         141.1461  145.2323  159.8321 C.ar    1  UNL1        0.1163
     12 N         141.8822  145.6944  158.6097 N.ar    1  UNL1       -0.2408
     13 C         141.6252  145.0371  157.2861 C.ar    1  UNL1        0.0990
     14 C         140.6320  143.9176  157.1849 C.ar    1  UNL1        0.0222
     15 C         139.8958  143.4555  158.4074 C.ar    1  UNL1        0.0206
     16 C         139.2186  143.7904  162.2145 C.ar    1  UNL1        0.0641
     17 C         137.8908  143.8758  162.9073 C.ar    1  UNL1        0.0175
     18 C         137.8267  144.2187  164.3662 C.ar    1  UNL1        0.0015
     19 C         139.0903  144.4764  165.1323 C.ar    1  UNL1        0.0001
     20 C         140.4180  144.3910  164.4395 C.ar    1  UNL1        0.0015
     21 C         140.4821  144.0481  162.9807 C.ar    1  UNL1        0.0175
     22 O         134.1535  139.2403  157.4818 O.2     1  UNL1       -0.2525
     23 C         133.8208  140.1284  156.3196 C.2     1  UNL1        0.3055
     24 N         134.9123  140.8674  155.6038 N.am    1  UNL1       -0.2537
     25 N         132.3964  140.2775  155.8732 N.am    1  UNL1       -0.2903
     26 H         134.6939  141.4503  154.8410 H       1  UNL1        0.1578
     27 H         132.1780  140.8604  155.1105 H       1  UNL1        0.1509
     28 C         131.3049  139.5385  156.5891 C.3     1  UNL1        0.0732
     29 C         130.1579  139.5323  157.5557 C.3     1  UNL1        0.0213
     30 C         130.5613  138.2648  156.8623 C.3     1  UNL1        0.0213
@<TRIPOS>BOND
     1    22    23    2
     2    23    24   am
     3    24     1    1
     4     1     2   ar
     5     2     3   ar
     6     3     7    1
     7     7     8   ar
     8     8     9   ar
     9     9    16    1
    10    16    17   ar
    11    17    18   ar
    12    18    19   ar
    13    19    20   ar
    14    20    21   ar
    15     9    10   ar
    16    10    11   ar
    17    11    12   ar
    18    12    13   ar
    19    13    14   ar
    20    14    15   ar
    21     3     4   ar
    22     4     5   ar
    23     5     6   ar
    24    23    25   am
    25    25    28    1
    26    28    29    1
    27    29    30    1
    28     6     1   ar
    29    30    28    1
    30    15     7   ar
    31    21    16   ar
    32    15    10   ar
    33    24    26    1
    34    25    27    1
@<TRIPOS>MOLECULE
*****
 30 34 0 0 0
SMALL
GASTEIGER

@<TRIPOS>ATOM
      1 C         138.7212  139.8657  170.0604 C.ar    1  UNL1        0.1353
      2 C         139.0851  139.9938  168.6108 C.ar    1  UNL1        0.0346
      3 C         140.5202  140.1675  168.2103 C.ar    1  UNL1        0.0058
      4 C         141.5913  140.2131  169.2593 C.ar    1  UNL1        0.0208
      5 C         141.2274  140.0850  170.7089 C.ar    1  UNL1        0.1003
      6 N         139.7923  139.9113  171.1094 N.ar    1  UNL1       -0.2290
      7 C         140.8841  140.2957  166.7608 C.ar    1  UNL1        0.0192
      8 C         141.8918  141.2461  166.1854 C.ar    1  UNL1        0.0801
      9 N         141.9346  141.0337  164.7011 N.ar    1  UNL1       -0.3035
     10 C         140.9534  139.9519  164.3592 C.ar    1  UNL1        0.0832
     11 C         140.5672  139.3232  163.0532 C.ar    1  UNL1        0.1163
     12 N         139.5318  138.2385  163.0202 N.ar    1  UNL1       -0.2408
     13 C         138.8825  137.7824  164.2931 C.ar    1  UNL1        0.0990
     14 C         139.2687  138.4110  165.5991 C.ar    1  UNL1        0.0222
     15 C         140.3041  139.4958  165.6321 C.ar    1  UNL1        0.0206
     16 C         142.8057  141.7731  163.7294 C.ar    1  UNL1        0.0641
     17 C         144.0088  141.1000  163.1379 C.ar    1  UNL1        0.0175
     18 C         144.8799  141.8395  162.1661 C.ar    1  UNL1        0.0015
     19 C         144.5481  143.2520  161.7858 C.ar    1  UNL1        0.0001
     20 C         143.3451  143.9251  162.3772 C.ar    1  UNL1        0.0015
     21 C         142.4740  143.1856  163.3490 C.ar    1  UNL1        0.0175
     22 O         137.9733  137.7989  172.1020 O.2     1  UNL1       -0.2525
     23 C         136.9122  138.6586  171.4816 C.2     1  UNL1        0.3055
     24 N         137.2861  139.6920  170.4608 N.am    1  UNL1       -0.2537
     25 N         135.4770  138.4848  171.8821 N.am    1  UNL1       -0.2903
     26 H         136.5897  140.2563  170.0536 H       1  UNL1        0.1578
     27 H         134.7806  139.0490  171.4749 H       1  UNL1        0.1509
     28 C         135.1031  137.4513  172.9030 C.3     1  UNL1        0.0732
     29 C         135.4697  136.2661  173.7461 C.3     1  UNL1        0.0213
     30 C         134.0889  136.8466  173.8280 C.3     1  UNL1        0.0213
@<TRIPOS>BOND
     1    22    23    2
     2    23    24   am
     3    24     1    1
     4     1     2   ar
     5     2     3   ar
     6     3     7    1
     7     7     8   ar
     8     8     9   ar
     9     9    16    1
    10    16    17   ar
    11    17    18   ar
    12    18    19   ar
    13    19    20   ar
    14    20    21   ar
    15     9    10   ar
    16    10    11   ar
    17    11    12   ar
    18    12    13   ar
    19    13    14   ar
    20    14    15   ar
    21     3     4   ar
    22     4     5   ar
    23     5     6   ar
    24    23    25   am
    25    25    28    1
    26    28    29    1
    27    29    30    1
    28     6     1   ar
    29    30    28    1
    30    15     7   ar
    31    21    16   ar
    32    15    10   ar
    33    24    26    1
    34    25    27    1
