@<TRIPOS>MOLECULE
*****
 31 32 0 0 0
SMALL
GASTEIGER

@<TRIPOS>ATOM
      1 C         138.1429  141.3396  163.3983 C.3     1  UNL1        0.1700
      2 O         136.6557  141.3245  163.2032 O.3     1  UNL1       -0.3793
      3 H         136.3584  140.4132  163.0544 H       1  UNL1        0.2106
      4 C         138.9194  140.0575  163.3441 C.3     1  UNL1        0.1056
      5 N         138.7650  139.0404  164.4358 N.3     1  UNL1       -0.2702
      6 C         137.7136  138.4489  166.7367 C.3     1  UNL1        0.0188
      7 C         138.2878  139.4639  165.7933 C.3     1  UNL1        0.0722
      8 C         139.0878  137.5999  164.1699 C.3     1  UNL1        0.0769
      9 C         140.4109  137.0366  164.5967 C.3     1  UNL1        0.0437
     10 C         141.6583  137.8560  164.4470 C.ar    1  UNL1       -0.0199
     11 C         142.3327  138.4241  165.6604 C.ar    1  UNL1       -0.0033
     12 C         143.5801  139.2435  165.5107 C.ar    1  UNL1        0.0119
     13 C         144.1532  139.4949  164.1475 C.ar    1  UNL1        0.0682
     14 CL        145.4007  140.3143  163.9978 Cl      1  UNL1       -0.0814
     15 C         143.4789  138.9268  162.9340 C.ar    1  UNL1        0.0679
     16 CL        144.0520  139.1782  161.5708 Cl      1  UNL1       -0.0814
     17 C         142.2314  138.1074  163.0837 C.ar    1  UNL1        0.0080
     18 C         138.8534  142.6369  163.6474 C.3     1  UNL1        0.2358
     19 O         140.3526  142.6856  163.6340 O.3     1  UNL1       -0.4728
     20 C         141.1161  142.6388  164.9243 C.ar    1  UNL1        0.1388
     21 C         142.6118  142.7528  164.9152 C.ar    1  UNL1        0.0382
     22 C         143.3753  142.7060  166.2055 C.ar    1  UNL1        0.0190
     23 C         142.6432  142.5452  167.5048 C.ar    1  UNL1        0.0646
     24 C         141.1476  142.4313  167.5138 C.ar    1  UNL1        0.0190
     25 C         140.3840  142.4781  166.2235 C.ar    1  UNL1        0.0382
     26 N         143.4067  142.4985  168.7951 N.pl3   1  UNL1       -0.2187
     27 H         144.3061  142.8952  168.8495 H       1  UNL1        0.1734
     28 S         142.8000  141.8471  170.0024 S.O2    1  UNL1        0.0558
     29 C         142.1932  141.1959  171.2098 C.3     1  UNL1        0.1996
     30 O         143.1711  140.4983  169.4614 O.2     1  UNL1       -0.1544
     31 O         142.4288  143.1960  170.5435 O.2     1  UNL1       -0.1544
@<TRIPOS>BOND
     1     6     7    1
     2     7     5    1
     3     5     8    1
     4     8     9    1
     5     9    10    1
     6    10    11   ar
     7    11    12   ar
     8    12    13   ar
     9    13    14    1
    10    13    15   ar
    11    15    16    1
    12    15    17   ar
    13     5     4    1
    14     4     1    1
    15     1     2    1
    16     1    18    1
    17    18    19    1
    18    19    20    1
    19    20    21   ar
    20    21    22   ar
    21    22    23   ar
    22    23    26    1
    23    26    28    1
    24    28    29    1
    25    28    30    2
    26    28    31    2
    27    23    24   ar
    28    24    25   ar
    29    17    10   ar
    30    25    20   ar
    31     2     3    1
    32    26    27    1
@<TRIPOS>MOLECULE
*****
 31 32 0 0 0
SMALL
GASTEIGER

@<TRIPOS>ATOM
      1 C         137.9074  141.6368  162.4333 C.3     1  UNL1        0.1700
      2 O         136.5502  141.2578  162.9473 O.3     1  UNL1       -0.3793
      3 H         135.9580  142.0240  162.8922 H       1  UNL1        0.2106
      4 C         138.1603  143.0308  161.9407 C.3     1  UNL1        0.1056
      5 N         138.4981  144.1207  162.9144 N.3     1  UNL1       -0.2702
      6 C         138.8962  144.7854  165.3942 C.3     1  UNL1        0.0188
      7 C         138.1881  143.9470  164.3717 C.3     1  UNL1        0.0722
      8 C         139.1458  145.3843  162.4308 C.3     1  UNL1        0.0769
      9 C         140.4993  145.3341  161.7862 C.3     1  UNL1        0.0437
     10 C         141.6266  144.6131  162.4641 C.ar    1  UNL1       -0.0199
     11 C         142.3879  145.2825  163.5696 C.ar    1  UNL1       -0.0033
     12 C         143.5151  144.5615  164.2474 C.ar    1  UNL1        0.0119
     13 C         143.8810  143.1711  163.8197 C.ar    1  UNL1        0.0682
     14 CL        145.0083  142.4501  164.4976 Cl      1  UNL1       -0.0814
     15 C         143.1197  142.5017  162.7142 C.ar    1  UNL1        0.0679
     16 CL        143.4856  141.1113  162.2865 Cl      1  UNL1       -0.0814
     17 C         141.9925  143.2227  162.0364 C.ar    1  UNL1        0.0080
     18 C         139.0117  140.6219  162.4119 C.3     1  UNL1        0.2358
     19 O         140.1402  140.7206  163.3950 O.3     1  UNL1       -0.4728
     20 C         139.8824  140.5051  164.8569 C.ar    1  UNL1        0.1388
     21 C         140.5776  141.3597  165.8750 C.ar    1  UNL1        0.0382
     22 C         140.3198  141.1442  167.3369 C.ar    1  UNL1        0.0190
     23 C         139.3668  140.0741  167.7807 C.ar    1  UNL1        0.0646
     24 C         138.6718  139.2196  166.7626 C.ar    1  UNL1        0.0190
     25 C         138.9296  139.4351  165.3007 C.ar    1  UNL1        0.0382
     26 N         139.1090  139.8587  169.2426 N.pl3   1  UNL1       -0.2187
     27 H         138.3387  139.3183  169.5322 H       1  UNL1        0.1734
     28 S         140.0250  140.4665  170.2633 S.O2    1  UNL1        0.0558
     29 C         140.9408  141.0743  171.2839 C.3     1  UNL1        0.1996
     30 O         139.0895  141.6299  170.4099 O.2     1  UNL1       -0.1544
     31 O         140.9604  139.3032  170.1166 O.2     1  UNL1       -0.1544
@<TRIPOS>BOND
     1     6     7    1
     2     7     5    1
     3     5     8    1
     4     8     9    1
     5     9    10    1
     6    10    11   ar
     7    11    12   ar
     8    12    13   ar
     9    13    14    1
    10    13    15   ar
    11    15    16    1
    12    15    17   ar
    13     5     4    1
    14     4     1    1
    15     1     2    1
    16     1    18    1
    17    18    19    1
    18    19    20    1
    19    20    21   ar
    20    21    22   ar
    21    22    23   ar
    22    23    26    1
    23    26    28    1
    24    28    29    1
    25    28    30    2
    26    28    31    2
    27    23    24   ar
    28    24    25   ar
    29    17    10   ar
    30    25    20   ar
    31     2     3    1
    32    26    27    1
@<TRIPOS>MOLECULE
*****
 31 32 0 0 0
SMALL
GASTEIGER

@<TRIPOS>ATOM
      1 C         138.1040  140.9869  163.0915 C.3     1  UNL1        0.1700
      2 O         136.6441  141.3283  163.1340 O.3     1  UNL1       -0.3793
      3 H         136.5201  142.2523  162.8660 H       1  UNL1        0.2106
      4 C         139.1050  142.0241  162.6766 C.3     1  UNL1        0.1056
      5 N         139.1549  143.3445  163.3865 N.3     1  UNL1       -0.2702
      6 C         140.0594  143.0713  165.8066 C.3     1  UNL1        0.0188
      7 C         138.9377  143.4075  164.8693 C.3     1  UNL1        0.0722
      8 C         139.4221  144.6020  162.6135 C.3     1  UNL1        0.0769
      9 C         140.7589  145.2748  162.7146 C.3     1  UNL1        0.0437
     10 C         142.0025  144.4517  162.8768 C.ar    1  UNL1       -0.0199
     11 C         142.4602  143.5570  161.7632 C.ar    1  UNL1       -0.0033
     12 C         143.7037  142.7340  161.9255 C.ar    1  UNL1        0.0119
     13 C         144.4894  142.8056  163.2012 C.ar    1  UNL1        0.0682
     14 CL        145.7329  141.9825  163.3634 Cl      1  UNL1       -0.0814
     15 C         144.0316  143.7003  164.3147 C.ar    1  UNL1        0.0679
     16 CL        144.8174  143.7719  165.5905 Cl      1  UNL1       -0.0814
     17 C         142.7882  144.5233  164.1525 C.ar    1  UNL1        0.0080
     18 C         138.5631  139.6083  163.4639 C.3     1  UNL1        0.2358
     19 O         138.4389  139.1338  164.8814 O.3     1  UNL1       -0.4728
     20 C         139.5468  139.3931  165.8589 C.ar    1  UNL1        0.1388
     21 C         140.9760  139.2341  165.4321 C.ar    1  UNL1        0.0382
     22 C         142.0839  139.4934  166.4095 C.ar    1  UNL1        0.0190
     23 C         141.7625  139.9117  167.8138 C.ar    1  UNL1        0.0646
     24 C         140.3333  140.0706  168.2405 C.ar    1  UNL1        0.0190
     25 C         139.2255  139.8113  167.2631 C.ar    1  UNL1        0.0382
     26 N         142.8704  140.1709  168.7912 N.pl3   1  UNL1       -0.2187
     27 H         143.5782  139.4994  168.9226 H       1  UNL1        0.1734
     28 S         142.8998  141.4535  169.5686 S.O2    1  UNL1        0.0558
     29 C         142.9293  142.7361  170.3459 C.3     1  UNL1        0.1996
     30 O         142.5798  140.6994  170.8251 O.2     1  UNL1       -0.1544
     31 O         143.2198  142.2077  168.3121 O.2     1  UNL1       -0.1544
@<TRIPOS>BOND
     1     6     7    1
     2     7     5    1
     3     5     8    1
     4     8     9    1
     5     9    10    1
     6    10    11   ar
     7    11    12   ar
     8    12    13   ar
     9    13    14    1
    10    13    15   ar
    11    15    16    1
    12    15    17   ar
    13     5     4    1
    14     4     1    1
    15     1     2    1
    16     1    18    1
    17    18    19    1
    18    19    20    1
    19    20    21   ar
    20    21    22   ar
    21    22    23   ar
    22    23    26    1
    23    26    28    1
    24    28    29    1
    25    28    30    2
    26    28    31    2
    27    23    24   ar
    28    24    25   ar
    29    17    10   ar
    30    25    20   ar
    31     2     3    1
    32    26    27    1
@<TRIPOS>MOLECULE
*****
 31 32 0 0 0
SMALL
GASTEIGER

@<TRIPOS>ATOM
      1 C         137.8816  141.6631  162.5716 C.3     1  UNL1        0.1700
      2 O         136.5220  141.3003  163.0910 O.3     1  UNL1       -0.3793
      3 H         135.9567  142.0885  163.0955 H       1  UNL1        0.2106
      4 C         138.1747  143.0753  162.1594 C.3     1  UNL1        0.1056
      5 N         138.7478  144.0428  163.1521 N.3     1  UNL1       -0.2702
      6 C         138.6791  144.9583  165.5825 C.3     1  UNL1        0.0188
      7 C         138.5527  143.8135  164.6215 C.3     1  UNL1        0.0722
      8 C         139.5162  145.2396  162.6753 C.3     1  UNL1        0.0769
      9 C         140.8913  145.0682  162.1014 C.3     1  UNL1        0.0437
     10 C         141.8325  144.0631  162.6965 C.ar    1  UNL1       -0.0199
     11 C         141.8724  142.6631  162.1595 C.ar    1  UNL1       -0.0033
     12 C         142.8135  141.6581  162.7547 C.ar    1  UNL1        0.0119
     13 C         143.7147  142.0531  163.8868 C.ar    1  UNL1        0.0682
     14 CL        144.6559  141.0481  164.4820 Cl      1  UNL1       -0.0814
     15 C         143.6748  143.4531  164.4238 C.ar    1  UNL1        0.0679
     16 CL        144.5761  143.8481  165.5560 Cl      1  UNL1       -0.0814
     17 C         142.7337  144.4581  163.8287 C.ar    1  UNL1        0.0080
     18 C         138.9482  140.6139  162.4645 C.3     1  UNL1        0.2358
     19 O         138.9018  139.4042  163.3502 O.3     1  UNL1       -0.4728
     20 C         139.2029  139.5344  164.8139 C.ar    1  UNL1        0.1388
     21 C         138.1536  139.1896  165.8289 C.ar    1  UNL1        0.0382
     22 C         138.4546  139.3197  167.2927 C.ar    1  UNL1        0.0190
     23 C         139.8049  139.7947  167.7413 C.ar    1  UNL1        0.0646
     24 C         140.8541  140.1395  166.7263 C.ar    1  UNL1        0.0190
     25 C         140.5531  140.0093  165.2626 C.ar    1  UNL1        0.0382
     26 N         140.1060  139.9249  169.2050 N.pl3   1  UNL1       -0.2187
     27 H         140.4110  139.1409  169.7165 H       1  UNL1        0.1734
     28 S         139.9422  141.2496  169.8895 S.O2    1  UNL1        0.0558
     29 C         139.7784  142.5742  170.5739 C.3     1  UNL1        0.1996
     30 O         141.3273  141.6397  169.4660 O.2     1  UNL1       -0.1544
     31 O         138.5571  140.8595  170.3129 O.2     1  UNL1       -0.1544
@<TRIPOS>BOND
     1     6     7    1
     2     7     5    1
     3     5     8    1
     4     8     9    1
     5     9    10    1
     6    10    11   ar
     7    11    12   ar
     8    12    13   ar
     9    13    14    1
    10    13    15   ar
    11    15    16    1
    12    15    17   ar
    13     5     4    1
    14     4     1    1
    15     1     2    1
    16     1    18    1
    17    18    19    1
    18    19    20    1
    19    20    21   ar
    20    21    22   ar
    21    22    23   ar
    22    23    26    1
    23    26    28    1
    24    28    29    1
    25    28    30    2
    26    28    31    2
    27    23    24   ar
    28    24    25   ar
    29    17    10   ar
    30    25    20   ar
    31     2     3    1
    32    26    27    1
@<TRIPOS>MOLECULE
*****
 31 32 0 0 0
SMALL
GASTEIGER

@<TRIPOS>ATOM
      1 C         138.0030  143.0475  162.6240 C.3     1  UNL1        0.1700
      2 O         137.3976  144.4147  162.5051 O.3     1  UNL1       -0.3793
      3 H         138.0063  144.9972  162.0244 H       1  UNL1        0.2106
      4 C         139.3557  142.7726  162.0369 C.3     1  UNL1        0.1056
      5 N         139.4909  141.8438  160.8669 N.3     1  UNL1       -0.2702
      6 C         138.8183  142.5654  158.4634 C.3     1  UNL1        0.0188
      7 C         138.4828  141.8841  159.7569 C.3     1  UNL1        0.0722
      8 C         140.6343  140.8747  160.8068 C.3     1  UNL1        0.0769
      9 C         140.5288  139.5467  161.4962 C.3     1  UNL1        0.0437
     10 C         141.1770  139.3423  162.8334 C.ar    1  UNL1       -0.0199
     11 C         140.8802  138.1063  163.6297 C.ar    1  UNL1       -0.0033
     12 C         141.5284  137.9019  164.9669 C.ar    1  UNL1        0.0119
     13 C         142.4734  138.9336  165.5078 C.ar    1  UNL1        0.0682
     14 CL        143.1216  138.7292  166.8450 Cl      1  UNL1       -0.0814
     15 C         142.7703  140.1696  164.7115 C.ar    1  UNL1        0.0679
     16 CL        143.7153  141.2012  165.2524 Cl      1  UNL1       -0.0814
     17 C         142.1221  140.3739  163.3743 C.ar    1  UNL1        0.0080
     18 C         137.2558  141.9551  163.3298 C.3     1  UNL1        0.2358
     19 O         137.9516  140.6716  163.6740 O.3     1  UNL1       -0.4728
     20 C         138.4741  140.4507  165.0626 C.ar    1  UNL1        0.1388
     21 C         138.0187  139.2612  165.8549 C.ar    1  UNL1        0.0382
     22 C         138.5412  139.0403  167.2435 C.ar    1  UNL1        0.0190
     23 C         139.5191  140.0090  167.8398 C.ar    1  UNL1        0.0646
     24 C         139.9744  141.1984  167.0475 C.ar    1  UNL1        0.0190
     25 C         139.4519  141.4193  165.6589 C.ar    1  UNL1        0.0382
     26 N         140.0416  139.7881  169.2284 N.pl3   1  UNL1       -0.2187
     27 H         140.1961  138.8728  169.5564 H       1  UNL1        0.1734
     28 S         140.3286  140.9618  170.1173 S.O2    1  UNL1        0.0558
     29 C         140.6156  142.1355  171.0061 C.3     1  UNL1        0.1996
     30 O         141.7974  140.7955  169.8627 O.2     1  UNL1       -0.1544
     31 O         138.8598  141.1282  170.3719 O.2     1  UNL1       -0.1544
@<TRIPOS>BOND
     1     6     7    1
     2     7     5    1
     3     5     8    1
     4     8     9    1
     5     9    10    1
     6    10    11   ar
     7    11    12   ar
     8    12    13   ar
     9    13    14    1
    10    13    15   ar
    11    15    16    1
    12    15    17   ar
    13     5     4    1
    14     4     1    1
    15     1     2    1
    16     1    18    1
    17    18    19    1
    18    19    20    1
    19    20    21   ar
    20    21    22   ar
    21    22    23   ar
    22    23    26    1
    23    26    28    1
    24    28    29    1
    25    28    30    2
    26    28    31    2
    27    23    24   ar
    28    24    25   ar
    29    17    10   ar
    30    25    20   ar
    31     2     3    1
    32    26    27    1
@<TRIPOS>MOLECULE
*****
 31 32 0 0 0
SMALL
GASTEIGER

@<TRIPOS>ATOM
      1 C         142.4182  138.5657  165.1366 C.3     1  UNL1        0.1700
      2 O         142.5834  138.7401  166.6172 O.3     1  UNL1       -0.3793
      3 H         141.9823  138.1377  167.0827 H       1  UNL1        0.2106
      4 C         141.4312  137.5696  164.6043 C.3     1  UNL1        0.1056
      5 N         140.0709  138.0233  164.1640 N.3     1  UNL1       -0.2702
      6 C         138.6045  138.0968  162.0207 C.3     1  UNL1        0.0188
      7 C         139.8544  138.4851  162.7534 C.3     1  UNL1        0.0722
      8 C         138.9271  138.0152  165.1345 C.3     1  UNL1        0.0769
      9 C         138.8114  139.0975  166.1665 C.3     1  UNL1        0.0437
     10 C         139.0329  140.5298  165.7793 C.ar    1  UNL1       -0.0199
     11 C         140.1176  141.3266  166.4416 C.ar    1  UNL1       -0.0033
     12 C         140.3390  142.7587  166.0544 C.ar    1  UNL1        0.0119
     13 C         139.4758  143.3940  165.0050 C.ar    1  UNL1        0.0682
     14 CL        139.6973  144.8262  164.6179 Cl      1  UNL1       -0.0814
     15 C         138.3911  142.5972  164.3428 C.ar    1  UNL1        0.0679
     16 CL        137.5279  143.2325  163.2934 Cl      1  UNL1       -0.0814
     17 C         138.1697  141.1651  164.7300 C.ar    1  UNL1        0.0080
     18 C         143.2400  139.3875  164.1883 C.3     1  UNL1        0.2358
     19 O         143.6196  140.7931  164.5490 O.3     1  UNL1       -0.4728
     20 C         143.1355  141.9393  163.7111 C.ar    1  UNL1        0.1388
     21 C         141.9462  141.7627  162.8141 C.ar    1  UNL1        0.0382
     22 C         141.4621  142.9088  161.9762 C.ar    1  UNL1        0.0190
     23 C         142.1672  144.2315  162.0354 C.ar    1  UNL1        0.0646
     24 C         143.3564  144.4080  162.9323 C.ar    1  UNL1        0.0190
     25 C         143.8405  143.2619  163.7702 C.ar    1  UNL1        0.0382
     26 N         141.6831  145.3776  161.1975 N.pl3   1  UNL1       -0.2187
     27 H         141.8313  146.3036  161.4972 H       1  UNL1        0.1734
     28 S         140.9732  145.1129  159.9028 S.O2    1  UNL1        0.0558
     29 C         140.2634  144.8481  158.6082 C.3     1  UNL1        0.1996
     30 O         139.6656  145.4649  160.5478 O.2     1  UNL1       -0.1544
     31 O         142.2809  144.7609  159.2579 O.2     1  UNL1       -0.1544
@<TRIPOS>BOND
     1     6     7    1
     2     7     5    1
     3     5     8    1
     4     8     9    1
     5     9    10    1
     6    10    11   ar
     7    11    12   ar
     8    12    13   ar
     9    13    14    1
    10    13    15   ar
    11    15    16    1
    12    15    17   ar
    13     5     4    1
    14     4     1    1
    15     1     2    1
    16     1    18    1
    17    18    19    1
    18    19    20    1
    19    20    21   ar
    20    21    22   ar
    21    22    23   ar
    22    23    26    1
    23    26    28    1
    24    28    29    1
    25    28    30    2
    26    28    31    2
    27    23    24   ar
    28    24    25   ar
    29    17    10   ar
    30    25    20   ar
    31     2     3    1
    32    26    27    1
@<TRIPOS>MOLECULE
*****
 31 32 0 0 0
SMALL
GASTEIGER

@<TRIPOS>ATOM
      1 C         145.0555  140.6152  162.9274 C.3     1  UNL1        0.1700
      2 O         145.0831  139.3570  163.7435 O.3     1  UNL1       -0.3793
      3 H         144.5549  138.6736  163.3020 H       1  UNL1        0.2106
      4 C         144.2829  140.6589  161.6425 C.3     1  UNL1        0.1056
      5 N         142.8334  140.2734  161.6254 N.3     1  UNL1       -0.2702
      6 C         141.8378  142.6020  161.0456 C.3     1  UNL1        0.0188
      7 C         141.7767  141.3198  161.8215 C.3     1  UNL1        0.0722
      8 C         142.4405  138.8415  161.4123 C.3     1  UNL1        0.0769
      9 C         142.3063  137.9179  162.5865 C.3     1  UNL1        0.0437
     10 C         141.2498  138.1690  163.6213 C.ar    1  UNL1       -0.0199
     11 C         139.8836  137.5715  163.4587 C.ar    1  UNL1       -0.0033
     12 C         138.8272  137.8226  164.4935 C.ar    1  UNL1        0.0119
     13 C         139.1369  138.6712  165.6909 C.ar    1  UNL1        0.0682
     14 CL        138.0804  138.9223  166.7258 Cl      1  UNL1       -0.0814
     15 C         140.5031  139.2687  165.8536 C.ar    1  UNL1        0.0679
     16 CL        140.8129  140.1173  167.0511 Cl      1  UNL1       -0.0814
     17 C         141.5595  139.0176  164.8188 C.ar    1  UNL1        0.0080
     18 C         145.8005  141.8298  163.3963 C.3     1  UNL1        0.2358
     19 O         145.2727  142.6360  164.5458 O.3     1  UNL1       -0.4728
     20 C         143.9291  143.2953  164.4452 C.ar    1  UNL1        0.1388
     21 C         143.7777  144.5761  163.6791 C.ar    1  UNL1        0.0382
     22 C         142.4341  145.2354  163.5785 C.ar    1  UNL1        0.0190
     23 C         141.2420  144.6139  164.2439 C.ar    1  UNL1        0.0646
     24 C         141.3935  143.3332  165.0098 C.ar    1  UNL1        0.0190
     25 C         142.7370  142.6739  165.1105 C.ar    1  UNL1        0.0382
     26 N         139.8984  145.2733  164.1432 N.pl3   1  UNL1       -0.2187
     27 H         139.7871  146.2096  164.4264 H       1  UNL1        0.1734
     28 S         138.7244  144.5059  163.6112 S.O2    1  UNL1        0.0558
     29 C         137.5505  143.7387  163.0792 C.3     1  UNL1        0.1996
     30 O         138.1395  144.4441  164.9911 O.2     1  UNL1       -0.1544
     31 O         139.3093  144.5678  162.2314 O.2     1  UNL1       -0.1544
@<TRIPOS>BOND
     1     6     7    1
     2     7     5    1
     3     5     8    1
     4     8     9    1
     5     9    10    1
     6    10    11   ar
     7    11    12   ar
     8    12    13   ar
     9    13    14    1
    10    13    15   ar
    11    15    16    1
    12    15    17   ar
    13     5     4    1
    14     4     1    1
    15     1     2    1
    16     1    18    1
    17    18    19    1
    18    19    20    1
    19    20    21   ar
    20    21    22   ar
    21    22    23   ar
    22    23    26    1
    23    26    28    1
    24    28    29    1
    25    28    30    2
    26    28    31    2
    27    23    24   ar
    28    24    25   ar
    29    17    10   ar
    30    25    20   ar
    31     2     3    1
    32    26    27    1
@<TRIPOS>MOLECULE
*****
 31 32 0 0 0
SMALL
GASTEIGER

@<TRIPOS>ATOM
      1 C         138.7635  143.1867  162.7847 C.3     1  UNL1        0.1700
      2 O         137.6637  143.4152  161.7906 O.3     1  UNL1       -0.3793
      3 H         137.4089  144.3511  161.7997 H       1  UNL1        0.2106
      4 C         139.2882  144.3319  163.5990 C.3     1  UNL1        0.1056
      5 N         140.4029  145.1824  163.0662 N.3     1  UNL1       -0.2702
      6 C         140.6499  145.2188  160.4802 C.3     1  UNL1        0.0188
      7 C         140.2425  145.8945  161.7558 C.3     1  UNL1        0.0722
      8 C         141.6783  145.3207  163.8437 C.3     1  UNL1        0.0769
      9 C         142.9823  144.9139  163.2242 C.3     1  UNL1        0.0437
     10 C         143.5551  143.5563  163.5053 C.ar    1  UNL1       -0.0199
     11 C         144.6309  142.9985  162.6214 C.ar    1  UNL1       -0.0033
     12 C         145.2037  141.6409  162.9025 C.ar    1  UNL1        0.0119
     13 C         144.7005  140.8412  164.0675 C.ar    1  UNL1        0.0682
     14 CL        145.2733  139.4836  164.3486 Cl      1  UNL1       -0.0814
     15 C         143.6247  141.3990  164.9514 C.ar    1  UNL1        0.0679
     16 CL        143.1215  140.5993  166.1165 Cl      1  UNL1       -0.0814
     17 C         143.0519  142.7566  164.6703 C.ar    1  UNL1        0.0080
     18 C         139.3385  141.8130  162.9645 C.3     1  UNL1        0.2358
     19 O         138.5458  140.7549  163.6730 O.3     1  UNL1       -0.4728
     20 C         138.7744  140.4982  165.1331 C.ar    1  UNL1        0.1388
     21 C         139.6592  141.4138  165.9261 C.ar    1  UNL1        0.0382
     22 C         139.8878  141.1571  167.3862 C.ar    1  UNL1        0.0190
     23 C         139.2315  139.9847  168.0533 C.ar    1  UNL1        0.0646
     24 C         138.3467  139.0692  167.2603 C.ar    1  UNL1        0.0190
     25 C         138.1182  139.3259  165.8002 C.ar    1  UNL1        0.0382
     26 N         139.4601  139.7280  169.5134 N.pl3   1  UNL1       -0.2187
     27 H         138.8929  139.0829  169.9944 H       1  UNL1        0.1734
     28 S         140.5528  140.4542  170.2405 S.O2    1  UNL1        0.0558
     29 C         141.6454  141.1805  170.9676 C.3     1  UNL1        0.1996
     30 O         141.5415  139.4221  169.7856 O.2     1  UNL1       -0.1544
     31 O         139.5640  141.4863  170.6955 O.2     1  UNL1       -0.1544
@<TRIPOS>BOND
     1     6     7    1
     2     7     5    1
     3     5     8    1
     4     8     9    1
     5     9    10    1
     6    10    11   ar
     7    11    12   ar
     8    12    13   ar
     9    13    14    1
    10    13    15   ar
    11    15    16    1
    12    15    17   ar
    13     5     4    1
    14     4     1    1
    15     1     2    1
    16     1    18    1
    17    18    19    1
    18    19    20    1
    19    20    21   ar
    20    21    22   ar
    21    22    23   ar
    22    23    26    1
    23    26    28    1
    24    28    29    1
    25    28    30    2
    26    28    31    2
    27    23    24   ar
    28    24    25   ar
    29    17    10   ar
    30    25    20   ar
    31     2     3    1
    32    26    27    1
@<TRIPOS>MOLECULE
*****
 31 32 0 0 0
SMALL
GASTEIGER

@<TRIPOS>ATOM
      1 C         140.1891  140.1349  170.1568 C.3     1  UNL1        0.1700
      2 O         139.2658  139.4186  171.0971 O.3     1  UNL1       -0.3793
      3 H         139.6445  139.4256  171.9901 H       1  UNL1        0.2106
      4 C         141.4714  140.7224  170.6672 C.3     1  UNL1        0.1056
      5 N         142.0843  141.9025  169.9732 N.3     1  UNL1       -0.2702
      6 C         140.3610  143.8368  169.7775 C.3     1  UNL1        0.0188
      7 C         141.6457  143.2923  170.3280 C.3     1  UNL1        0.0722
      8 C         143.1360  141.6927  168.9243 C.3     1  UNL1        0.0769
      9 C         142.9371  142.2414  167.5425 C.3     1  UNL1        0.0437
     10 C         143.1423  141.3577  166.3479 C.ar    1  UNL1       -0.0199
     11 C         143.9069  141.8658  165.1616 C.ar    1  UNL1       -0.0033
     12 C         144.1120  140.9821  163.9671 C.ar    1  UNL1        0.0119
     13 C         143.5525  139.5904  163.9588 C.ar    1  UNL1        0.0682
     14 CL        143.7577  138.7067  162.7641 Cl      1  UNL1       -0.0814
     15 C         142.7879  139.0823  165.1450 C.ar    1  UNL1        0.0679
     16 CL        142.2285  137.6906  165.1367 Cl      1  UNL1       -0.0814
     17 C         142.5828  139.9660  166.3396 C.ar    1  UNL1        0.0080
     18 C         139.8302  140.2638  168.7061 C.3     1  UNL1        0.2358
     19 O         138.6791  139.4820  168.1460 O.3     1  UNL1       -0.4728
     20 C         138.7014  139.0362  166.7139 C.ar    1  UNL1        0.1388
     21 C         138.3647  137.6167  166.3651 C.ar    1  UNL1        0.0382
     22 C         138.3870  137.1708  164.9330 C.ar    1  UNL1        0.0190
     23 C         138.7460  138.1445  163.8499 C.ar    1  UNL1        0.0646
     24 C         139.0827  139.5639  164.1988 C.ar    1  UNL1        0.0190
     25 C         139.0604  140.0098  165.6308 C.ar    1  UNL1        0.0382
     26 N         138.7683  137.6986  162.4179 N.pl3   1  UNL1       -0.2187
     27 H         138.0934  137.0611  162.0902 H       1  UNL1        0.1734
     28 S         139.8190  138.2241  161.4850 S.O2    1  UNL1        0.0558
     29 C         140.8696  138.7495  160.5523 C.3     1  UNL1        0.1996
     30 O         138.8000  139.1156  160.8395 O.2     1  UNL1       -0.1544
     31 O         140.8380  137.3326  162.1306 O.2     1  UNL1       -0.1544
@<TRIPOS>BOND
     1     6     7    1
     2     7     5    1
     3     5     8    1
     4     8     9    1
     5     9    10    1
     6    10    11   ar
     7    11    12   ar
     8    12    13   ar
     9    13    14    1
    10    13    15   ar
    11    15    16    1
    12    15    17   ar
    13     5     4    1
    14     4     1    1
    15     1     2    1
    16     1    18    1
    17    18    19    1
    18    19    20    1
    19    20    21   ar
    20    21    22   ar
    21    22    23   ar
    22    23    26    1
    23    26    28    1
    24    28    29    1
    25    28    30    2
    26    28    31    2
    27    23    24   ar
    28    24    25   ar
    29    17    10   ar
    30    25    20   ar
    31     2     3    1
    32    26    27    1
