@<TRIPOS>MOLECULE
*****
 32 36 0 0 0
SMALL
GASTEIGER

@<TRIPOS>ATOM
      1 C         140.8844  141.5108  168.2365 C.3     1  UNL1        0.2334
      2 N         139.6612  141.8765  169.0241 N.2     1  UNL1       -0.0887
      3 C         140.1007  142.6595  170.2258 C.2     1  UNL1        0.4031
      4 N         139.2030  143.2249  171.2862 N.pl3   1  UNL1       -0.2478
      5 N         141.5954  142.7777  170.1808 N.ar    1  UNL1       -0.1061
      6 N         142.7907  143.3347  170.8956 N.ar    1  UNL1       -0.1075
      7 C         144.0137  142.9691  170.1079 C.ar    1  UNL1        0.0968
      8 C         145.4279  143.3240  170.4601 C.3     1  UNL1        0.0554
      9 C         143.5743  142.1861  168.9063 C.ar    1  UNL1        0.0532
     10 C         142.0797  142.0678  168.9513 C.ar    1  UNL1        0.1691
     11 H         138.2290  143.0938  171.2278 H       1  UNL1        0.2414
     12 H         139.5879  143.7270  172.0405 H       1  UNL1        0.2414
     13 C         143.9374  139.9985  165.2968 C.ar    1  UNL1        0.1387
     14 C         143.5034  141.4339  165.2558 C.ar    1  UNL1        0.0367
     15 C         142.4858  141.9380  166.2357 C.ar    1  UNL1        0.0028
     16 C         141.9020  141.0067  167.2566 C.ar    1  UNL1        0.0244
     17 C         142.3360  139.5715  167.2976 C.ar    1  UNL1        0.0028
     18 C         143.3536  139.0673  166.3177 C.ar    1  UNL1        0.0367
     19 C         144.5607  139.2342  162.8932 C.3     1  UNL1        0.2525
     20 O         144.9551  139.4944  164.3169 O.3     1  UNL1       -0.4714
     21 C         139.9018  140.8485  167.3168 C.ar    1  UNL1        0.0242
     22 C         139.1208  139.6569  167.7861 C.ar    1  UNL1       -0.0003
     23 C         138.1383  138.9945  166.8665 C.ar    1  UNL1       -0.0002
     24 C         137.9367  139.5237  165.4775 C.ar    1  UNL1        0.0001
     25 C         138.7176  140.7153  165.0081 C.ar    1  UNL1        0.0028
     26 C         139.7002  141.3777  165.9278 C.ar    1  UNL1       -0.0002
     27 C         138.5160  141.2445  163.6191 C.ar    1  UNL1        0.0384
     28 C         138.9686  140.4398  162.4369 C.ar    1  UNL1        0.1022
     29 N         138.7670  140.9691  161.0479 N.ar    1  UNL1       -0.2224
     30 C         138.1127  142.3029  160.8412 C.ar    1  UNL1        0.1989
     31 N         137.6600  143.1076  162.0234 N.ar    1  UNL1       -0.2224
     32 C         137.8617  142.5784  163.4124 C.ar    1  UNL1        0.1022
@<TRIPOS>BOND
     1    19    20    1
     2    20    13    1
     3    13    14   ar
     4    14    15   ar
     5    15    16   ar
     6    16     1    1
     7     1    21    1
     8    21    22   ar
     9    22    23   ar
    10    23    24   ar
    11    24    25   ar
    12    25    27    1
    13    27    28   ar
    14    28    29   ar
    15    29    30   ar
    16    30    31   ar
    17    31    32   ar
    18    25    26   ar
    19     1     2    1
    20     2     3    2
    21     3     4    1
    22     3     5    1
    23     5     6   ar
    24     6     7   ar
    25     7     8    1
    26     7     9   ar
    27     9    10   ar
    28    16    17   ar
    29    17    18   ar
    30    18    13   ar
    31    10     1    1
    32    26    21   ar
    33    10     5   ar
    34    32    27   ar
    35     4    11    1
    36     4    12    1
@<TRIPOS>MOLECULE
*****
 32 36 0 0 0
SMALL
GASTEIGER

@<TRIPOS>ATOM
      1 C         140.6768  140.5658  168.2346 C.3     1  UNL1        0.2334
      2 N         139.8984  139.6001  169.0782 N.2     1  UNL1       -0.0887
      3 C         140.1741  139.9160  170.5185 C.2     1  UNL1        0.4031
      4 N         139.6016  139.1972  171.7040 N.pl3   1  UNL1       -0.2478
      5 N         141.1229  141.0769  170.5650 N.ar    1  UNL1       -0.1061
      6 N         141.8796  141.9897  171.4838 N.ar    1  UNL1       -0.1075
      7 C         142.6579  142.9553  170.6402 C.ar    1  UNL1        0.0968
      8 C         143.5545  144.0455  171.1477 C.3     1  UNL1        0.0554
      9 C         142.3822  142.6394  169.2000 C.ar    1  UNL1        0.0532
     10 C         141.4335  141.4785  169.1535 C.ar    1  UNL1        0.1691
     11 H         138.9836  138.4425  171.5708 H       1  UNL1        0.2414
     12 H         139.8438  139.4801  172.6153 H       1  UNL1        0.2414
     13 C         142.6222  142.9967  164.9857 C.ar    1  UNL1        0.1387
     14 C         141.1861  143.2383  165.3453 C.ar    1  UNL1        0.0367
     15 C         140.5376  142.4280  166.4283 C.ar    1  UNL1        0.0028
     16 C         141.3253  141.3761  167.1516 C.ar    1  UNL1        0.0244
     17 C         142.7613  141.1344  166.7920 C.ar    1  UNL1        0.0028
     18 C         143.4098  141.9447  165.7090 C.ar    1  UNL1        0.0367
     19 C         142.7454  145.1722  163.5709 C.3     1  UNL1        0.2525
     20 O         143.2707  143.8069  163.9027 O.3     1  UNL1       -0.4714
     21 C         140.0556  139.8225  167.0894 C.ar    1  UNL1        0.0242
     22 C         138.6148  139.4106  167.1559 C.ar    1  UNL1       -0.0003
     23 C         137.9936  138.6673  166.0107 C.ar    1  UNL1       -0.0002
     24 C         138.8132  138.3358  164.7989 C.ar    1  UNL1        0.0001
     25 C         140.2541  138.7476  164.7324 C.ar    1  UNL1        0.0028
     26 C         140.8752  139.4910  165.8777 C.ar    1  UNL1       -0.0002
     27 C         141.0737  138.4161  163.5207 C.ar    1  UNL1        0.0384
     28 C         142.5711  138.4687  163.5907 C.ar    1  UNL1        0.1022
     29 N         143.3907  138.1372  162.3789 N.ar    1  UNL1       -0.2224
     30 C         142.7128  137.7531  161.0972 C.ar    1  UNL1        0.1989
     31 N         141.2154  137.7005  161.0271 N.ar    1  UNL1       -0.2224
     32 C         140.3958  138.0320  162.2389 C.ar    1  UNL1        0.1022
@<TRIPOS>BOND
     1    19    20    1
     2    20    13    1
     3    13    14   ar
     4    14    15   ar
     5    15    16   ar
     6    16     1    1
     7     1    21    1
     8    21    22   ar
     9    22    23   ar
    10    23    24   ar
    11    24    25   ar
    12    25    27    1
    13    27    28   ar
    14    28    29   ar
    15    29    30   ar
    16    30    31   ar
    17    31    32   ar
    18    25    26   ar
    19     1     2    1
    20     2     3    2
    21     3     4    1
    22     3     5    1
    23     5     6   ar
    24     6     7   ar
    25     7     8    1
    26     7     9   ar
    27     9    10   ar
    28    16    17   ar
    29    17    18   ar
    30    18    13   ar
    31    10     1    1
    32    26    21   ar
    33    10     5   ar
    34    32    27   ar
    35     4    11    1
    36     4    12    1
@<TRIPOS>MOLECULE
*****
 32 36 0 0 0
SMALL
GASTEIGER

@<TRIPOS>ATOM
      1 C         141.6881  140.9056  167.8554 C.3     1  UNL1        0.2334
      2 N         142.9526  140.7035  168.6367 N.2     1  UNL1       -0.0887
      3 C         142.5816  140.1725  169.9897 C.2     1  UNL1        0.4031
      4 N         143.5367  139.8281  171.0938 N.pl3   1  UNL1       -0.2478
      5 N         141.0879  140.0465  170.0446 N.ar    1  UNL1       -0.1061
      6 N         139.9356  139.6405  170.9148 N.ar    1  UNL1       -0.1075
      7 C         138.6712  139.8426  170.1336 C.ar    1  UNL1        0.0968
      8 C         137.2800  139.5629  170.6199 C.3     1  UNL1        0.0554
      9 C         139.0420  140.3735  168.7806 C.ar    1  UNL1        0.0532
     10 C         140.5357  140.4996  168.7256 C.ar    1  UNL1        0.1691
     11 H         144.5052  139.9459  170.9615 H       1  UNL1        0.2414
     12 H         143.1952  139.4843  171.9508 H       1  UNL1        0.2414
     13 C         138.4771  141.8059  164.8341 C.ar    1  UNL1        0.1387
     14 C         139.2088  142.9286  165.5081 C.ar    1  UNL1        0.0367
     15 C         140.2791  142.6285  166.5152 C.ar    1  UNL1        0.0028
     16 C         140.6177  141.2057  166.8483 C.ar    1  UNL1        0.0244
     17 C         139.8861  140.0830  166.1744 C.ar    1  UNL1        0.0028
     18 C         138.8158  140.3831  165.1672 C.ar    1  UNL1        0.0367
     19 C         137.7777  142.4019  162.4039 C.3     1  UNL1        0.2525
     20 O         137.4067  142.1060  163.8269 O.3     1  UNL1       -0.4714
     21 C         142.6167  141.3744  166.7748 C.ar    1  UNL1        0.0242
     22 C         143.4285  142.6202  166.9718 C.ar    1  UNL1       -0.0003
     23 C         144.3571  143.0889  165.8911 C.ar    1  UNL1       -0.0002
     24 C         144.4739  142.3119  164.6134 C.ar    1  UNL1        0.0001
     25 C         143.6621  141.0660  164.4163 C.ar    1  UNL1        0.0028
     26 C         142.7335  140.5973  165.4970 C.ar    1  UNL1       -0.0002
     27 C         143.7789  140.2890  163.1386 C.ar    1  UNL1        0.0384
     28 C         143.6823  138.7922  163.1596 C.ar    1  UNL1        0.1022
     29 N         143.7991  138.0152  161.8818 N.ar    1  UNL1       -0.2224
     30 C         144.0125  138.7350  160.5832 C.ar    1  UNL1        0.1989
     31 N         144.1091  140.2317  160.5623 N.ar    1  UNL1       -0.2224
     32 C         143.9923  141.0088  161.8400 C.ar    1  UNL1        0.1022
@<TRIPOS>BOND
     1    19    20    1
     2    20    13    1
     3    13    14   ar
     4    14    15   ar
     5    15    16   ar
     6    16     1    1
     7     1    21    1
     8    21    22   ar
     9    22    23   ar
    10    23    24   ar
    11    24    25   ar
    12    25    27    1
    13    27    28   ar
    14    28    29   ar
    15    29    30   ar
    16    30    31   ar
    17    31    32   ar
    18    25    26   ar
    19     1     2    1
    20     2     3    2
    21     3     4    1
    22     3     5    1
    23     5     6   ar
    24     6     7   ar
    25     7     8    1
    26     7     9   ar
    27     9    10   ar
    28    16    17   ar
    29    17    18   ar
    30    18    13   ar
    31    10     1    1
    32    26    21   ar
    33    10     5   ar
    34    32    27   ar
    35     4    11    1
    36     4    12    1
@<TRIPOS>MOLECULE
*****
 32 36 0 0 0
SMALL
GASTEIGER

@<TRIPOS>ATOM
      1 C         141.0697  140.8627  168.0844 C.3     1  UNL1        0.2334
      2 N         140.8262  139.6568  168.9428 N.2     1  UNL1       -0.0887
      3 C         140.2756  140.1268  170.2566 C.2     1  UNL1        0.4031
      4 N         139.8896  139.2537  171.4137 N.pl3   1  UNL1       -0.2478
      5 N         140.1788  141.6229  170.2102 N.ar    1  UNL1       -0.1061
      6 N         139.7787  142.8380  170.9935 N.ar    1  UNL1       -0.1075
      7 C         140.0222  144.0437  170.1351 C.ar    1  UNL1        0.0968
      8 C         139.7610  145.4691  170.5224 C.3     1  UNL1        0.0554
      9 C         140.5728  143.5739  168.8213 C.ar    1  UNL1        0.0532
     10 C         140.6696  142.0777  168.8677 C.ar    1  UNL1        0.1691
     11 H         139.9903  138.2766  171.3482 H       1  UNL1        0.2414
     12 H         139.5355  139.6579  172.2386 H       1  UNL1        0.2414
     13 C         142.0960  143.8484  164.8779 C.ar    1  UNL1        0.1387
     14 C         140.6610  143.5170  165.1625 C.ar    1  UNL1        0.0367
     15 C         140.3189  142.5217  166.2314 C.ar    1  UNL1        0.0028
     16 C         141.4118  141.8579  167.0155 C.ar    1  UNL1        0.0244
     17 C         142.8468  142.1893  166.7309 C.ar    1  UNL1        0.0028
     18 C         143.1889  143.1846  165.6621 C.ar    1  UNL1        0.0367
     19 C         143.8402  144.9264  163.2823 C.3     1  UNL1        0.2525
     20 O         142.4381  144.8436  163.8090 O.3     1  UNL1       -0.4714
     21 C         141.5413  139.8557  167.0777 C.ar    1  UNL1        0.0242
     22 C         142.7967  139.0744  167.3299 C.ar    1  UNL1       -0.0003
     23 C         143.2683  138.0673  166.3232 C.ar    1  UNL1       -0.0002
     24 C         142.4846  137.8416  165.0643 C.ar    1  UNL1        0.0001
     25 C         141.2292  138.6230  164.8121 C.ar    1  UNL1        0.0028
     26 C         140.7576  139.6300  165.8188 C.ar    1  UNL1       -0.0002
     27 C         140.4455  138.3973  163.5531 C.ar    1  UNL1        0.0384
     28 C         141.1611  138.1429  162.2596 C.ar    1  UNL1        0.1022
     29 N         140.3773  137.9172  161.0007 N.ar    1  UNL1       -0.2224
     30 C         138.8780  137.9459  161.0354 C.ar    1  UNL1        0.1989
     31 N         138.1624  138.2002  162.3290 N.ar    1  UNL1       -0.2224
     32 C         138.9461  138.4259  163.5879 C.ar    1  UNL1        0.1022
@<TRIPOS>BOND
     1    19    20    1
     2    20    13    1
     3    13    14   ar
     4    14    15   ar
     5    15    16   ar
     6    16     1    1
     7     1    21    1
     8    21    22   ar
     9    22    23   ar
    10    23    24   ar
    11    24    25   ar
    12    25    27    1
    13    27    28   ar
    14    28    29   ar
    15    29    30   ar
    16    30    31   ar
    17    31    32   ar
    18    25    26   ar
    19     1     2    1
    20     2     3    2
    21     3     4    1
    22     3     5    1
    23     5     6   ar
    24     6     7   ar
    25     7     8    1
    26     7     9   ar
    27     9    10   ar
    28    16    17   ar
    29    17    18   ar
    30    18    13   ar
    31    10     1    1
    32    26    21   ar
    33    10     5   ar
    34    32    27   ar
    35     4    11    1
    36     4    12    1
@<TRIPOS>MOLECULE
*****
 32 36 0 0 0
SMALL
GASTEIGER

@<TRIPOS>ATOM
      1 C         141.2705  141.8961  167.4007 C.3     1  UNL1        0.2334
      2 N         142.1357  142.8655  168.1503 N.2     1  UNL1       -0.0887
      3 C         141.7291  142.8293  169.5937 C.2     1  UNL1        0.4031
      4 N         142.3330  143.6421  170.7004 N.pl3   1  UNL1       -0.2478
      5 N         140.6128  141.8376  169.7362 N.ar    1  UNL1       -0.1061
      6 N         139.6717  141.2023  170.7164 N.ar    1  UNL1       -0.1075
      7 C         138.8066  140.2329  169.9667 C.ar    1  UNL1        0.0968
      8 C         137.7249  139.3776  170.5569 C.3     1  UNL1        0.0554
      9 C         139.2131  140.2691  168.5233 C.ar    1  UNL1        0.0532
     10 C         140.3294  141.2608  168.3808 C.ar    1  UNL1        0.1691
     11 H         143.0661  144.2700  170.5064 H       1  UNL1        0.2414
     12 H         141.9962  143.5478  171.6206 H       1  UNL1        0.2414
     13 C         139.1738  139.2717  164.4063 C.ar    1  UNL1        0.1387
     14 C         138.5697  140.5856  164.8049 C.ar    1  UNL1        0.0367
     15 C         139.2686  141.4604  165.8030 C.ar    1  UNL1        0.0028
     16 C         140.5716  141.0213  166.4026 C.ar    1  UNL1        0.0244
     17 C         141.1757  139.7074  166.0040 C.ar    1  UNL1        0.0028
     18 C         140.4768  138.8326  165.0059 C.ar    1  UNL1        0.0367
     19 C         139.1689  138.0074  162.1366 C.3     1  UNL1        0.2525
     20 O         138.4749  138.3969  163.4082 O.3     1  UNL1       -0.4714
     21 C         142.0656  142.3485  166.2119 C.ar    1  UNL1        0.0242
     22 C         143.5365  142.0634  166.1408 C.ar    1  UNL1       -0.0003
     23 C         144.3315  142.5158  164.9521 C.ar    1  UNL1       -0.0002
     24 C         143.6557  143.2532  163.8343 C.ar    1  UNL1        0.0001
     25 C         142.1847  143.5383  163.9054 C.ar    1  UNL1        0.0028
     26 C         141.3897  143.0859  165.0941 C.ar    1  UNL1       -0.0002
     27 C         141.5088  144.2758  162.7876 C.ar    1  UNL1        0.0384
     28 C         140.1662  144.9067  163.0093 C.ar    1  UNL1        0.1022
     29 N         139.4903  145.6441  161.8915 N.ar    1  UNL1       -0.2224
     30 C         140.1572  145.7507  160.5521 C.ar    1  UNL1        0.1989
     31 N         141.4999  145.1198  160.3305 N.ar    1  UNL1       -0.2224
     32 C         142.1758  144.3823  161.4482 C.ar    1  UNL1        0.1022
@<TRIPOS>BOND
     1    19    20    1
     2    20    13    1
     3    13    14   ar
     4    14    15   ar
     5    15    16   ar
     6    16     1    1
     7     1    21    1
     8    21    22   ar
     9    22    23   ar
    10    23    24   ar
    11    24    25   ar
    12    25    27    1
    13    27    28   ar
    14    28    29   ar
    15    29    30   ar
    16    30    31   ar
    17    31    32   ar
    18    25    26   ar
    19     1     2    1
    20     2     3    2
    21     3     4    1
    22     3     5    1
    23     5     6   ar
    24     6     7   ar
    25     7     8    1
    26     7     9   ar
    27     9    10   ar
    28    16    17   ar
    29    17    18   ar
    30    18    13   ar
    31    10     1    1
    32    26    21   ar
    33    10     5   ar
    34    32    27   ar
    35     4    11    1
    36     4    12    1
@<TRIPOS>MOLECULE
*****
 32 36 0 0 0
SMALL
GASTEIGER

@<TRIPOS>ATOM
      1 C         139.1463  140.2480  165.5784 C.3     1  UNL1        0.2334
      2 N         138.1583  139.1192  165.5863 N.2     1  UNL1       -0.0887
      3 C         137.9532  138.6928  167.0098 C.2     1  UNL1        0.4031
      4 N         137.0461  137.5941  167.4789 N.pl3   1  UNL1       -0.2478
      5 N         138.8143  139.5579  167.8816 N.ar    1  UNL1       -0.1061
      6 N         139.2197  139.8290  169.3001 N.ar    1  UNL1       -0.1075
      7 C         140.2076  140.9577  169.2921 C.ar    1  UNL1        0.0968
      8 C         140.8735  141.5550  170.4962 C.3     1  UNL1        0.0554
      9 C         140.4128  141.3841  167.8687 C.ar    1  UNL1        0.0532
     10 C         139.5517  140.5190  166.9969 C.ar    1  UNL1        0.1691
     11 H         136.5180  137.0795  166.8266 H       1  UNL1        0.2414
     12 H         136.9789  137.3876  168.4392 H       1  UNL1        0.2414
     13 C         141.9796  143.6110  164.6234 C.ar    1  UNL1        0.1387
     14 C         140.5131  143.8865  164.7769 C.ar    1  UNL1        0.0367
     15 C         139.5686  142.7655  165.0952 C.ar    1  UNL1        0.0028
     16 C         140.0907  141.3690  165.2601 C.ar    1  UNL1        0.0244
     17 C         141.5572  141.0934  165.1066 C.ar    1  UNL1        0.0028
     18 C         142.5016  142.2144  164.7883 C.ar    1  UNL1        0.0367
     19 C         143.6924  144.7222  163.0168 C.3     1  UNL1        0.2525
     20 O         142.9241  144.7320  164.3050 O.3     1  UNL1       -0.4714
     21 C         138.9383  140.2112  164.0934 C.ar    1  UNL1        0.0242
     22 C         137.7094  140.8268  163.4927 C.ar    1  UNL1       -0.0003
     23 C         137.5014  140.7900  162.0077 C.ar    1  UNL1       -0.0002
     24 C         138.5223  140.1377  161.1233 C.ar    1  UNL1        0.0001
     25 C         139.7513  139.5221  161.7239 C.ar    1  UNL1        0.0028
     26 C         139.9592  139.5589  163.2090 C.ar    1  UNL1       -0.0002
     27 C         140.7722  138.8698  160.8396 C.ar    1  UNL1        0.0384
     28 C         141.9197  138.1182  161.4465 C.ar    1  UNL1        0.1022
     29 N         142.9406  137.4659  160.5620 N.ar    1  UNL1       -0.2224
     30 C         142.8140  137.5652  159.0707 C.ar    1  UNL1        0.1989
     31 N         141.6665  138.3168  158.4637 N.ar    1  UNL1       -0.2224
     32 C         140.6456  138.9692  159.3481 C.ar    1  UNL1        0.1022
@<TRIPOS>BOND
     1    19    20    1
     2    20    13    1
     3    13    14   ar
     4    14    15   ar
     5    15    16   ar
     6    16     1    1
     7     1    21    1
     8    21    22   ar
     9    22    23   ar
    10    23    24   ar
    11    24    25   ar
    12    25    27    1
    13    27    28   ar
    14    28    29   ar
    15    29    30   ar
    16    30    31   ar
    17    31    32   ar
    18    25    26   ar
    19     1     2    1
    20     2     3    2
    21     3     4    1
    22     3     5    1
    23     5     6   ar
    24     6     7   ar
    25     7     8    1
    26     7     9   ar
    27     9    10   ar
    28    16    17   ar
    29    17    18   ar
    30    18    13   ar
    31    10     1    1
    32    26    21   ar
    33    10     5   ar
    34    32    27   ar
    35     4    11    1
    36     4    12    1
@<TRIPOS>MOLECULE
*****
 32 36 0 0 0
SMALL
GASTEIGER

@<TRIPOS>ATOM
      1 C         140.2411  140.5300  167.3038 C.3     1  UNL1        0.2334
      2 N         139.0450  139.8897  167.9439 N.2     1  UNL1       -0.0887
      3 C         139.0514  140.2480  169.4005 C.2     1  UNL1        0.4031
      4 N         138.0361  139.8198  170.4182 N.pl3   1  UNL1       -0.2478
      5 N         140.2514  141.1096  169.6607 N.ar    1  UNL1       -0.1061
      6 N         140.9969  141.8635  170.7217 N.ar    1  UNL1       -0.1075
      7 C         142.1929  142.5037  170.0816 C.ar    1  UNL1        0.0968
      8 C         143.2157  143.3531  170.7762 C.3     1  UNL1        0.0554
      9 C         142.1865  142.1455  168.6250 C.ar    1  UNL1        0.0532
     10 C         140.9866  141.2839  168.3649 C.ar    1  UNL1        0.1691
     11 H         137.2791  139.2507  170.1490 H       1  UNL1        0.2414
     12 H         138.1266  140.1077  171.3552 H       1  UNL1        0.2414
     13 C         143.5041  142.0441  164.6002 C.ar    1  UNL1        0.1387
     14 C         142.4064  142.9668  165.0405 C.ar    1  UNL1        0.0367
     15 C         141.3188  142.4622  165.9417 C.ar    1  UNL1        0.0028
     16 C         141.3287  141.0347  166.4026 C.ar    1  UNL1        0.0244
     17 C         142.4263  140.1120  165.9623 C.ar    1  UNL1        0.0028
     18 C         143.5140  140.6167  165.0611 C.ar    1  UNL1        0.0367
     19 C         145.8328  141.7322  163.4912 C.3     1  UNL1        0.2525
     20 O         144.5918  142.5488  163.6989 O.3     1  UNL1       -0.4714
     21 C         139.7229  139.8816  166.0544 C.ar    1  UNL1        0.0242
     22 C         139.3875  138.4196  166.0518 C.ar    1  UNL1       -0.0003
     23 C         138.8693  137.7712  164.8024 C.ar    1  UNL1       -0.0002
     24 C         138.6865  138.5848  163.5556 C.ar    1  UNL1        0.0001
     25 C         139.0219  140.0468  163.5581 C.ar    1  UNL1        0.0028
     26 C         139.5401  140.6952  164.8075 C.ar    1  UNL1       -0.0002
     27 C         138.8391  140.8605  162.3113 C.ar    1  UNL1        0.0384
     28 C         139.2513  140.2996  160.9826 C.ar    1  UNL1        0.1022
     29 N         139.0685  141.1133  159.7358 N.ar    1  UNL1       -0.2224
     30 C         138.4734  142.4878  159.8177 C.ar    1  UNL1        0.1989
     31 N         138.0611  143.0486  161.1464 N.ar    1  UNL1       -0.2224
     32 C         138.2439  142.2350  162.3933 C.ar    1  UNL1        0.1022
@<TRIPOS>BOND
     1    19    20    1
     2    20    13    1
     3    13    14   ar
     4    14    15   ar
     5    15    16   ar
     6    16     1    1
     7     1    21    1
     8    21    22   ar
     9    22    23   ar
    10    23    24   ar
    11    24    25   ar
    12    25    27    1
    13    27    28   ar
    14    28    29   ar
    15    29    30   ar
    16    30    31   ar
    17    31    32   ar
    18    25    26   ar
    19     1     2    1
    20     2     3    2
    21     3     4    1
    22     3     5    1
    23     5     6   ar
    24     6     7   ar
    25     7     8    1
    26     7     9   ar
    27     9    10   ar
    28    16    17   ar
    29    17    18   ar
    30    18    13   ar
    31    10     1    1
    32    26    21   ar
    33    10     5   ar
    34    32    27   ar
    35     4    11    1
    36     4    12    1
@<TRIPOS>MOLECULE
*****
 32 36 0 0 0
SMALL
GASTEIGER

@<TRIPOS>ATOM
      1 C         139.7132  139.6143  165.6903 C.3     1  UNL1        0.2334
      2 N         138.6957  138.5133  165.6395 N.2     1  UNL1       -0.0887
      3 C         138.0600  138.4068  166.9940 C.2     1  UNL1        0.4031
      4 N         136.9880  137.4357  167.3910 N.pl3   1  UNL1       -0.2478
      5 N         138.6847  139.4420  167.8819 N.ar    1  UNL1       -0.1061
      6 N         138.6778  140.0160  169.2677 N.ar    1  UNL1       -0.1075
      7 C         139.6953  141.1169  169.3184 C.ar    1  UNL1        0.0968
      8 C         140.0201  141.9629  170.5137 C.3     1  UNL1        0.0554
      9 C         140.3310  141.2234  167.9639 C.ar    1  UNL1        0.0532
     10 C         139.7064  140.1882  167.0761 C.ar    1  UNL1        0.1691
     11 H         136.6400  136.7908  166.7335 H       1  UNL1        0.2414
     12 H         136.6323  137.4433  168.3089 H       1  UNL1        0.2414
     13 C         142.9097  142.6917  164.9406 C.ar    1  UNL1        0.1387
     14 C         143.2913  141.2833  165.2883 C.ar    1  UNL1        0.0367
     15 C         142.2258  140.2574  165.5382 C.ar    1  UNL1        0.0028
     16 C         140.7787  140.6401  165.4404 C.ar    1  UNL1        0.0244
     17 C         140.3971  142.0484  165.0927 C.ar    1  UNL1        0.0028
     18 C         141.4626  143.0742  164.8428 C.ar    1  UNL1        0.0367
     19 C         143.6897  144.8953  163.8068 C.3     1  UNL1        0.2525
     20 O         143.9752  143.7175  164.6907 O.3     1  UNL1       -0.4714
     21 C         139.9428  139.2547  164.2522 C.ar    1  UNL1        0.0242
     22 C         140.6853  137.9993  163.9024 C.ar    1  UNL1       -0.0003
     23 C         140.9149  137.6397  162.4643 C.ar    1  UNL1       -0.0002
     24 C         140.4019  138.5357  161.3761 C.ar    1  UNL1        0.0001
     25 C         139.6594  139.7911  161.7260 C.ar    1  UNL1        0.0028
     26 C         139.4298  140.1507  163.1640 C.ar    1  UNL1       -0.0002
     27 C         139.1464  140.6871  160.6378 C.ar    1  UNL1        0.0384
     28 C         138.5359  140.0934  159.4029 C.ar    1  UNL1        0.1022
     29 N         138.0230  140.9894  158.3147 N.ar    1  UNL1       -0.2224
     30 C         138.1205  142.4790  158.4615 C.ar    1  UNL1        0.1989
     31 N         138.7310  143.0727  159.6963 N.ar    1  UNL1       -0.2224
     32 C         139.2440  142.1767  160.7845 C.ar    1  UNL1        0.1022
@<TRIPOS>BOND
     1    19    20    1
     2    20    13    1
     3    13    14   ar
     4    14    15   ar
     5    15    16   ar
     6    16     1    1
     7     1    21    1
     8    21    22   ar
     9    22    23   ar
    10    23    24   ar
    11    24    25   ar
    12    25    27    1
    13    27    28   ar
    14    28    29   ar
    15    29    30   ar
    16    30    31   ar
    17    31    32   ar
    18    25    26   ar
    19     1     2    1
    20     2     3    2
    21     3     4    1
    22     3     5    1
    23     5     6   ar
    24     6     7   ar
    25     7     8    1
    26     7     9   ar
    27     9    10   ar
    28    16    17   ar
    29    17    18   ar
    30    18    13   ar
    31    10     1    1
    32    26    21   ar
    33    10     5   ar
    34    32    27   ar
    35     4    11    1
    36     4    12    1
@<TRIPOS>MOLECULE
*****
 32 36 0 0 0
SMALL
GASTEIGER

@<TRIPOS>ATOM
      1 C         142.0641  139.3495  165.5835 C.3     1  UNL1        0.2334
      2 N         143.1270  138.2930  165.5174 N.2     1  UNL1       -0.0887
      3 C         143.6677  138.0922  166.9021 C.2     1  UNL1        0.4031
      4 N         144.7475  137.1283  167.2958 N.pl3   1  UNL1       -0.2478
      5 N         142.9390  139.0245  167.8240 N.ar    1  UNL1       -0.1061
      6 N         142.8228  139.4765  169.2496 N.ar    1  UNL1       -0.1075
      7 C         141.7600  140.5329  169.3157 C.ar    1  UNL1        0.0968
      8 C         141.3158  141.2607  170.5498 C.3     1  UNL1        0.0554
      9 C         141.2193  140.7338  167.9310 C.ar    1  UNL1        0.0532
     10 C         141.9480  139.8015  167.0091 C.ar    1  UNL1        0.1691
     11 H         145.1679  136.5551  166.6146 H       1  UNL1        0.2414
     12 H         145.0358  137.0689  168.2352 H       1  UNL1        0.2414
     13 C         138.8061  142.3671  164.8561 C.ar    1  UNL1        0.1387
     14 C         140.2371  142.8111  164.9288 C.ar    1  UNL1        0.0367
     15 C         141.3231  141.8053  165.1712 C.ar    1  UNL1        0.0028
     16 C         140.9781  140.3554  165.3411 C.ar    1  UNL1        0.0244
     17 C         139.5472  139.9113  165.2684 C.ar    1  UNL1        0.0028
     18 C         138.4612  140.9172  165.0259 C.ar    1  UNL1        0.0367
     19 C         137.6507  144.1006  163.3037 C.3     1  UNL1        0.2525
     20 O         137.7201  143.3729  164.6136 O.3     1  UNL1       -0.4714
     21 C         141.9533  139.1077  164.1073 C.ar    1  UNL1        0.0242
     22 C         141.2908  137.8617  163.5991 C.ar    1  UNL1       -0.0003
     23 C         141.1800  137.6199  162.1229 C.ar    1  UNL1       -0.0002
     24 C         141.7316  138.6242  161.1549 C.ar    1  UNL1        0.0001
     25 C         142.3942  139.8703  161.6631 C.ar    1  UNL1        0.0028
     26 C         142.5050  140.1121  163.1393 C.ar    1  UNL1       -0.0002
     27 C         142.9459  140.8746  160.6951 C.ar    1  UNL1        0.0384
     28 C         142.7318  142.3403  160.9316 C.ar    1  UNL1        0.1022
     29 N         143.2835  143.3446  159.9636 N.ar    1  UNL1       -0.2224
     30 C         144.0493  142.8831  158.7591 C.ar    1  UNL1        0.1989
     31 N         144.2633  141.4175  158.5226 N.ar    1  UNL1       -0.2224
     32 C         143.7116  140.4131  159.4906 C.ar    1  UNL1        0.1022
@<TRIPOS>BOND
     1    19    20    1
     2    20    13    1
     3    13    14   ar
     4    14    15   ar
     5    15    16   ar
     6    16     1    1
     7     1    21    1
     8    21    22   ar
     9    22    23   ar
    10    23    24   ar
    11    24    25   ar
    12    25    27    1
    13    27    28   ar
    14    28    29   ar
    15    29    30   ar
    16    30    31   ar
    17    31    32   ar
    18    25    26   ar
    19     1     2    1
    20     2     3    2
    21     3     4    1
    22     3     5    1
    23     5     6   ar
    24     6     7   ar
    25     7     8    1
    26     7     9   ar
    27     9    10   ar
    28    16    17   ar
    29    17    18   ar
    30    18    13   ar
    31    10     1    1
    32    26    21   ar
    33    10     5   ar
    34    32    27   ar
    35     4    11    1
    36     4    12    1
