@<TRIPOS>MOLECULE
*****
 31 35 0 0 0
SMALL
GASTEIGER

@<TRIPOS>ATOM
      1 C         141.1183  145.1698  160.1299 C.3     1  UNL1        0.0731
      2 N         140.7624  144.7677  161.5305 N.3     1  UNL1       -0.2712
      3 C         139.8338  145.5038  162.4502 C.3     1  UNL1        0.0738
      4 C         139.7702  144.7498  163.7453 C.3     1  UNL1        0.0372
      5 C         139.1569  144.7388  165.1142 C.3     1  UNL1        0.0245
      6 C         139.6671  143.5299  165.8410 C.3     1  UNL1        0.0909
      7 N         140.5957  142.7937  164.9213 N.pl3   1  UNL1       -0.3077
      8 C         140.6594  143.5477  163.6261 C.3     1  UNL1        0.0901
      9 C         141.2726  143.5587  162.2572 C.3     1  UNL1        0.0921
     10 C         141.3315  141.5262  165.2406 C.ar    1  UNL1        0.0480
     11 C         141.4086  141.0404  166.6577 C.ar    1  UNL1        0.0168
     12 C         142.1443  139.7729  166.9771 C.ar    1  UNL1        0.0309
     13 C         142.8029  138.9911  165.8794 C.ar    1  UNL1        0.1402
     14 F         143.5386  137.7235  166.1988 F       1  UNL1       -0.2042
     15 C         142.7258  139.4768  164.4623 C.ar    1  UNL1        0.0309
     16 C         141.9901  140.7443  164.1429 C.ar    1  UNL1        0.0168
     17 C         141.0113  144.1738  159.0135 C.3     1  UNL1        0.0294
     18 C         139.6626  143.7665  158.4983 C.3     1  UNL1        0.0666
     19 S         139.1169  142.4065  158.8185 S.3     1  UNL1       -0.0756
     20 C         139.9892  139.8050  160.5851 C.3     1  UNL1        0.1337
     21 N         139.0577  140.8961  161.0231 N.ar    1  UNL1       -0.2918
     22 C         138.6568  142.0919  160.2111 C.ar    1  UNL1        0.1930
     23 N         137.7149  142.9179  161.0362 N.ar    1  UNL1       -0.1224
     24 N         137.5338  142.2326  162.3581 N.ar    1  UNL1       -0.1328
     25 C         138.3637  140.9830  162.3501 C.ar    1  UNL1        0.1432
     26 C         138.4792  139.9941  163.4720 C.3     1  UNL1        0.0588
     27 C         138.0257  140.3688  164.8518 C.3     1  UNL1        0.0075
     28 C         138.1412  139.3799  165.9737 C.3     1  UNL1        0.0004
     29 C         138.7104  138.0162  165.7157 C.3     1  UNL1        0.0000
     30 C         139.1639  137.6415  164.3359 C.3     1  UNL1        0.0004
     31 C         139.0483  138.6305  163.2141 C.3     1  UNL1        0.0075
@<TRIPOS>BOND
     1    20    21    1
     2    21    22   ar
     3    22    19    1
     4    19    18    1
     5    18    17    1
     6    17     1    1
     7     1     2    1
     8     2     3    1
     9     3     4    1
    10     4     5    1
    11     5     6    1
    12     6     7    1
    13     7    10    1
    14    10    11   ar
    15    11    12   ar
    16    12    13   ar
    17    13    14    1
    18    13    15   ar
    19    15    16   ar
    20     7     8    1
    21     8     9    1
    22    22    23   ar
    23    23    24   ar
    24    24    25   ar
    25    25    26    1
    26    26    27    1
    27    27    28    1
    28    28    29    1
    29    29    30    1
    30    30    31    1
    31    25    21   ar
    32    31    26    1
    33     9     2    1
    34     8     4    1
    35    16    10   ar
@<TRIPOS>MOLECULE
*****
 31 35 0 0 0
SMALL
GASTEIGER

@<TRIPOS>ATOM
      1 C         143.1989  143.9157  161.6788 C.3     1  UNL1        0.0731
      2 N         141.9236  143.7638  162.4537 N.3     1  UNL1       -0.2712
      3 C         140.9732  144.8675  162.8126 C.3     1  UNL1        0.0738
      4 C         139.8370  144.2673  163.5865 C.3     1  UNL1        0.0372
      5 C         138.5474  144.5784  164.2866 C.3     1  UNL1        0.0245
      6 C         137.9986  143.2963  164.8387 C.3     1  UNL1        0.0909
      7 N         138.9491  142.1926  164.4798 N.pl3   1  UNL1       -0.3077
      8 C         140.0852  142.7928  163.7059 C.3     1  UNL1        0.0901
      9 C         141.3748  142.4816  163.0058 C.3     1  UNL1        0.0921
     10 C         138.7910  140.7434  164.8329 C.ar    1  UNL1        0.0480
     11 C         139.1413  139.6846  163.8298 C.ar    1  UNL1        0.0168
     12 C         138.9833  138.2353  164.1829 C.ar    1  UNL1        0.0309
     13 C         138.4750  137.8448  165.5390 C.ar    1  UNL1        0.1402
     14 F         138.3170  136.3955  165.8920 F       1  UNL1       -0.2042
     15 C         138.1247  138.9036  166.5421 C.ar    1  UNL1        0.0309
     16 C         138.2827  140.3529  166.1891 C.ar    1  UNL1        0.0168
     17 C         144.5076  143.5380  162.3068 C.3     1  UNL1        0.0294
     18 C         145.0358  142.1419  162.1582 C.3     1  UNL1        0.0666
     19 S         145.3688  141.3324  163.3762 S.3     1  UNL1       -0.0756
     20 C         144.0403  142.8995  165.9117 C.3     1  UNL1        0.1337
     21 N         143.6591  141.5342  165.4211 N.ar    1  UNL1       -0.2918
     22 C         144.2698  140.8139  164.2556 C.ar    1  UNL1        0.1930
     23 N         143.5885  139.4840  164.1239 N.ar    1  UNL1       -0.1224
     24 N         142.5568  139.3825  165.2080 N.ar    1  UNL1       -0.1328
     25 C         142.6004  140.6495  166.0097 C.ar    1  UNL1        0.1432
     26 C         141.7369  140.9748  167.1924 C.3     1  UNL1        0.0588
     27 C         141.4367  139.9191  168.2148 C.3     1  UNL1        0.0075
     28 C         140.5732  140.2443  169.3974 C.3     1  UNL1        0.0004
     29 C         140.0099  141.6254  169.5575 C.3     1  UNL1        0.0000
     30 C         140.3101  142.6811  168.5351 C.3     1  UNL1        0.0004
     31 C         141.1736  142.3557  167.3525 C.3     1  UNL1        0.0075
@<TRIPOS>BOND
     1    20    21    1
     2    21    22   ar
     3    22    19    1
     4    19    18    1
     5    18    17    1
     6    17     1    1
     7     1     2    1
     8     2     3    1
     9     3     4    1
    10     4     5    1
    11     5     6    1
    12     6     7    1
    13     7    10    1
    14    10    11   ar
    15    11    12   ar
    16    12    13   ar
    17    13    14    1
    18    13    15   ar
    19    15    16   ar
    20     7     8    1
    21     8     9    1
    22    22    23   ar
    23    23    24   ar
    24    24    25   ar
    25    25    26    1
    26    26    27    1
    27    27    28    1
    28    28    29    1
    29    29    30    1
    30    30    31    1
    31    25    21   ar
    32    31    26    1
    33     9     2    1
    34     8     4    1
    35    16    10   ar
@<TRIPOS>MOLECULE
*****
 31 35 0 0 0
SMALL
GASTEIGER

@<TRIPOS>ATOM
      1 C         143.8496  143.4743  162.8342 C.3     1  UNL1        0.0731
      2 N         143.3958  142.4144  163.7938 N.3     1  UNL1       -0.2712
      3 C         143.6050  140.9371  163.6393 C.3     1  UNL1        0.0738
      4 C         142.9917  140.2555  164.8264 C.3     1  UNL1        0.0372
      5 C         142.7419  138.9213  165.4646 C.3     1  UNL1        0.0245
      6 C         141.9992  139.1526  166.7472 C.3     1  UNL1        0.0909
      7 N         141.7900  140.6300  166.9016 N.pl3   1  UNL1       -0.3077
      8 C         142.4034  141.3116  165.7145 C.3     1  UNL1        0.0901
      9 C         142.6532  142.6458  165.0763 C.3     1  UNL1        0.0921
     10 C         141.0904  141.3068  168.0428 C.ar    1  UNL1        0.0480
     11 C         141.2947  142.7730  168.2843 C.ar    1  UNL1        0.0168
     12 C         140.5950  143.4499  169.4255 C.ar    1  UNL1        0.0309
     13 C         139.6910  142.6605  170.3252 C.ar    1  UNL1        0.1402
     14 F         138.9913  143.3373  171.4664 F       1  UNL1       -0.2042
     15 C         139.4867  141.1941  170.0838 C.ar    1  UNL1        0.0309
     16 C         140.1863  140.5173  168.9426 C.ar    1  UNL1        0.0168
     17 C         142.8787  144.5068  162.3431 C.3     1  UNL1        0.0294
     18 C         142.0556  144.2397  161.1178 C.3     1  UNL1        0.0666
     19 S         140.5751  144.0318  161.2395 S.3     1  UNL1       -0.0756
     20 C         140.4540  140.7919  161.6115 C.3     1  UNL1        0.1337
     21 N         139.9597  141.8114  162.5945 N.ar    1  UNL1       -0.2918
     22 C         140.0154  143.3006  162.4236 C.ar    1  UNL1        0.1930
     23 N         139.4130  143.9302  163.6445 N.ar    1  UNL1       -0.1224
     24 N         138.9850  142.8302  164.5701 N.ar    1  UNL1       -0.1328
     25 C         139.3229  141.5206  163.9212 C.ar    1  UNL1        0.1432
     26 C         139.0686  140.1594  164.4978 C.3     1  UNL1        0.0588
     27 C         138.3267  140.0205  165.7941 C.3     1  UNL1        0.0075
     28 C         138.0725  138.6593  166.3706 C.3     1  UNL1        0.0004
     29 C         138.5601  137.4369  165.6507 C.3     1  UNL1        0.0000
     30 C         139.3020  137.5758  164.3545 C.3     1  UNL1        0.0004
     31 C         139.5562  138.9371  163.7780 C.3     1  UNL1        0.0075
@<TRIPOS>BOND
     1    20    21    1
     2    21    22   ar
     3    22    19    1
     4    19    18    1
     5    18    17    1
     6    17     1    1
     7     1     2    1
     8     2     3    1
     9     3     4    1
    10     4     5    1
    11     5     6    1
    12     6     7    1
    13     7    10    1
    14    10    11   ar
    15    11    12   ar
    16    12    13   ar
    17    13    14    1
    18    13    15   ar
    19    15    16   ar
    20     7     8    1
    21     8     9    1
    22    22    23   ar
    23    23    24   ar
    24    24    25   ar
    25    25    26    1
    26    26    27    1
    27    27    28    1
    28    28    29    1
    29    29    30    1
    30    30    31    1
    31    25    21   ar
    32    31    26    1
    33     9     2    1
    34     8     4    1
    35    16    10   ar
@<TRIPOS>MOLECULE
*****
 31 35 0 0 0
SMALL
GASTEIGER

@<TRIPOS>ATOM
      1 C         143.8950  138.4672  162.8425 C.3     1  UNL1        0.0731
      2 N         142.5915  138.5104  163.5834 N.3     1  UNL1       -0.2712
      3 C         141.3785  137.6808  163.2827 C.3     1  UNL1        0.0738
      4 C         140.3095  138.0485  164.2687 C.3     1  UNL1        0.0372
      5 C         138.8991  137.7630  164.6922 C.3     1  UNL1        0.0245
      6 C         138.5797  138.6433  165.8640 C.3     1  UNL1        0.0909
      7 N         139.7928  139.4729  166.1647 N.pl3   1  UNL1       -0.3077
      8 C         140.8618  139.1053  165.1787 C.3     1  UNL1        0.0901
      9 C         142.2722  139.3908  164.7552 C.3     1  UNL1        0.0921
     10 C         139.9153  140.4913  167.2591 C.ar    1  UNL1        0.0480
     11 C         139.4998  140.1430  168.6576 C.ar    1  UNL1        0.0168
     12 C         139.6223  141.1615  169.7521 C.ar    1  UNL1        0.0309
     13 C         140.1603  142.5282  169.4480 C.ar    1  UNL1        0.1402
     14 F         140.2828  143.5466  170.5425 F       1  UNL1       -0.2042
     15 C         140.5759  142.8765  168.0494 C.ar    1  UNL1        0.0309
     16 C         140.4534  141.8581  166.9550 C.ar    1  UNL1        0.0168
     17 C         143.9191  138.1014  161.3880 C.3     1  UNL1        0.0294
     18 C         143.2594  138.9940  160.3789 C.3     1  UNL1        0.0666
     19 S         143.5629  140.4628  160.3650 S.3     1  UNL1       -0.0756
     20 C         140.4164  140.9056  161.1086 C.3     1  UNL1        0.1337
     21 N         141.5837  141.5526  161.7933 N.ar    1  UNL1       -0.2918
     22 C         143.0300  141.3491  161.4515 C.ar    1  UNL1        0.1930
     23 N         143.8498  142.1873  162.3870 N.ar    1  UNL1       -0.1224
     24 N         142.9102  142.9089  163.3071 N.ar    1  UNL1       -0.1328
     25 C         141.5096  142.5167  162.9402 C.ar    1  UNL1        0.1432
     26 C         140.2553  143.0031  163.6036 C.3     1  UNL1        0.0588
     27 C         139.0564  142.1058  163.6905 C.3     1  UNL1        0.0075
     28 C         137.8021  142.5922  164.3539 C.3     1  UNL1        0.0004
     29 C         137.7468  143.9760  164.9304 C.3     1  UNL1        0.0000
     30 C         138.9457  144.8733  164.8435 C.3     1  UNL1        0.0004
     31 C         140.2000  144.3868  164.1800 C.3     1  UNL1        0.0075
@<TRIPOS>BOND
     1    20    21    1
     2    21    22   ar
     3    22    19    1
     4    19    18    1
     5    18    17    1
     6    17     1    1
     7     1     2    1
     8     2     3    1
     9     3     4    1
    10     4     5    1
    11     5     6    1
    12     6     7    1
    13     7    10    1
    14    10    11   ar
    15    11    12   ar
    16    12    13   ar
    17    13    14    1
    18    13    15   ar
    19    15    16   ar
    20     7     8    1
    21     8     9    1
    22    22    23   ar
    23    23    24   ar
    24    24    25   ar
    25    25    26    1
    26    26    27    1
    27    27    28    1
    28    28    29    1
    29    29    30    1
    30    30    31    1
    31    25    21   ar
    32    31    26    1
    33     9     2    1
    34     8     4    1
    35    16    10   ar
@<TRIPOS>MOLECULE
*****
 31 35 0 0 0
SMALL
GASTEIGER

@<TRIPOS>ATOM
      1 C         138.1890  138.9971  161.7809 C.3     1  UNL1        0.0731
      2 N         138.3919  140.4077  162.2491 N.3     1  UNL1       -0.2712
      3 C         137.3740  141.5083  162.1987 C.3     1  UNL1        0.0738
      4 C         138.0013  142.7461  162.7683 C.3     1  UNL1        0.0372
      5 C         137.7599  144.1914  163.0892 C.3     1  UNL1        0.0245
      6 C         139.0161  144.7490  163.6899 C.3     1  UNL1        0.0909
      7 N         140.0340  143.6482  163.7403 N.pl3   1  UNL1       -0.3077
      8 C         139.4068  142.4105  163.1707 C.3     1  UNL1        0.0901
      9 C         139.6482  140.9652  162.8498 C.3     1  UNL1        0.0921
     10 C         141.4334  143.7649  164.2677 C.ar    1  UNL1        0.0480
     11 C         141.9454  142.7663  165.2630 C.ar    1  UNL1        0.0168
     12 C         143.3448  142.8830  165.7904 C.ar    1  UNL1        0.0309
     13 C         144.2321  143.9982  165.3225 C.ar    1  UNL1        0.1402
     14 F         145.6315  144.1148  165.8499 F       1  UNL1       -0.2042
     15 C         143.7201  144.9968  164.3272 C.ar    1  UNL1        0.0309
     16 C         142.3207  144.8802  163.7998 C.ar    1  UNL1        0.0168
     17 C         138.6736  137.8516  162.6194 C.3     1  UNL1        0.0294
     18 C         140.1397  137.6891  162.8919 C.3     1  UNL1        0.0666
     19 S         140.6139  137.3704  164.2788 S.3     1  UNL1       -0.0756
     20 C         142.8399  139.1215  165.9001 C.3     1  UNL1        0.1337
     21 N         141.3606  139.1286  166.1486 N.ar    1  UNL1       -0.2918
     22 C         140.3375  138.3237  165.4035 C.ar    1  UNL1        0.1930
     23 N         138.9893  138.6396  165.9803 N.ar    1  UNL1       -0.1224
     24 N         139.1793  139.6396  167.0820 N.ar    1  UNL1       -0.1328
     25 C         140.6448  139.9419  167.1861 C.ar    1  UNL1        0.1432
     26 C         141.2826  140.8908  168.1571 C.3     1  UNL1        0.0588
     27 C         140.5675  142.1471  168.5577 C.3     1  UNL1        0.0075
     28 C         141.2053  143.0960  169.5287 C.3     1  UNL1        0.0004
     29 C         142.5582  142.7886  170.0991 C.3     1  UNL1        0.0000
     30 C         143.2733  141.5323  169.6984 C.3     1  UNL1        0.0004
     31 C         142.6354  140.5835  168.7274 C.3     1  UNL1        0.0075
@<TRIPOS>BOND
     1    20    21    1
     2    21    22   ar
     3    22    19    1
     4    19    18    1
     5    18    17    1
     6    17     1    1
     7     1     2    1
     8     2     3    1
     9     3     4    1
    10     4     5    1
    11     5     6    1
    12     6     7    1
    13     7    10    1
    14    10    11   ar
    15    11    12   ar
    16    12    13   ar
    17    13    14    1
    18    13    15   ar
    19    15    16   ar
    20     7     8    1
    21     8     9    1
    22    22    23   ar
    23    23    24   ar
    24    24    25   ar
    25    25    26    1
    26    26    27    1
    27    27    28    1
    28    28    29    1
    29    29    30    1
    30    30    31    1
    31    25    21   ar
    32    31    26    1
    33     9     2    1
    34     8     4    1
    35    16    10   ar
@<TRIPOS>MOLECULE
*****
 31 35 0 0 0
SMALL
GASTEIGER

@<TRIPOS>ATOM
      1 C         141.2174  144.9888  161.3899 C.3     1  UNL1        0.0731
      2 N         142.1534  143.9736  161.9759 N.3     1  UNL1       -0.2712
      3 C         143.3722  143.4092  161.3082 C.3     1  UNL1        0.0738
      4 C         144.0069  142.4314  162.2522 C.3     1  UNL1        0.0372
      5 C         145.1525  141.4782  162.4230 C.3     1  UNL1        0.0245
      6 C         145.0340  140.8492  163.7796 C.3     1  UNL1        0.0909
      7 N         143.8150  141.4137  164.4473 N.pl3   1  UNL1       -0.3077
      8 C         143.1804  142.3915  163.5033 C.3     1  UNL1        0.0901
      9 C         142.0348  143.3447  163.3326 C.3     1  UNL1        0.0921
     10 C         143.3182  141.0621  165.8182 C.ar    1  UNL1        0.0480
     11 C         143.0653  142.1450  166.8249 C.ar    1  UNL1        0.0168
     12 C         142.5684  141.7934  168.1958 C.ar    1  UNL1        0.0309
     13 C         142.3244  140.3590  168.5601 C.ar    1  UNL1        0.1402
     14 F         141.8275  140.0074  169.9311 F       1  UNL1       -0.2042
     15 C         142.5773  139.2760  167.5534 C.ar    1  UNL1        0.0309
     16 C         143.0742  139.6276  166.1825 C.ar    1  UNL1        0.0168
     17 C         139.9954  144.5401  160.6448 C.3     1  UNL1        0.0294
     18 C         140.1346  143.6743  159.4278 C.3     1  UNL1        0.0666
     19 S         139.6948  142.2409  159.4729 S.3     1  UNL1       -0.0756
     20 C         137.9629  141.9999  162.2282 C.3     1  UNL1        0.1337
     21 N         139.2418  141.2773  161.9247 N.ar    1  UNL1       -0.2918
     22 C         140.0379  141.3881  160.6582 C.ar    1  UNL1        0.1930
     23 N         141.2374  140.4964  160.7851 N.ar    1  UNL1       -0.1224
     24 N         141.1826  139.8344  162.1300 N.ar    1  UNL1       -0.1328
     25 C         139.9493  140.3171  162.8344 C.ar    1  UNL1        0.1432
     26 C         139.5020  139.9108  164.2073 C.3     1  UNL1        0.0588
     27 C         139.6556  140.8608  165.3579 C.3     1  UNL1        0.0075
     28 C         139.2083  140.4546  166.7308 C.3     1  UNL1        0.0004
     29 C         138.6074  139.0982  166.9531 C.3     1  UNL1        0.0000
     30 C         138.4539  138.1482  165.8025 C.3     1  UNL1        0.0004
     31 C         138.9012  138.5545  164.4296 C.3     1  UNL1        0.0075
@<TRIPOS>BOND
     1    20    21    1
     2    21    22   ar
     3    22    19    1
     4    19    18    1
     5    18    17    1
     6    17     1    1
     7     1     2    1
     8     2     3    1
     9     3     4    1
    10     4     5    1
    11     5     6    1
    12     6     7    1
    13     7    10    1
    14    10    11   ar
    15    11    12   ar
    16    12    13   ar
    17    13    14    1
    18    13    15   ar
    19    15    16   ar
    20     7     8    1
    21     8     9    1
    22    22    23   ar
    23    23    24   ar
    24    24    25   ar
    25    25    26    1
    26    26    27    1
    27    27    28    1
    28    28    29    1
    29    29    30    1
    30    30    31    1
    31    25    21   ar
    32    31    26    1
    33     9     2    1
    34     8     4    1
    35    16    10   ar
@<TRIPOS>MOLECULE
*****
 31 35 0 0 0
SMALL
GASTEIGER

@<TRIPOS>ATOM
      1 C         140.6625  143.6243  159.3086 C.3     1  UNL1        0.0731
      2 N         140.8197  142.2363  159.8551 N.3     1  UNL1       -0.2712
      3 C         141.6268  141.1323  159.2390 C.3     1  UNL1        0.0738
      4 C         141.5033  139.9223  160.1169 C.3     1  UNL1        0.0372
      5 C         141.9258  138.4922  160.2786 C.3     1  UNL1        0.0245
      6 C         141.3035  137.9645  161.5374 C.3     1  UNL1        0.0909
      7 N         140.4964  139.0686  162.1536 N.pl3   1  UNL1       -0.3077
      8 C         140.6199  140.2786  161.2756 C.3     1  UNL1        0.0901
      9 C         140.1974  141.7087  161.1139 C.3     1  UNL1        0.0921
     10 C         139.7048  138.9786  163.4245 C.ar    1  UNL1        0.0480
     11 C         138.9148  140.1611  163.9014 C.ar    1  UNL1        0.0168
     12 C         138.1232  140.0710  165.1724 C.ar    1  UNL1        0.0309
     13 C         138.1216  138.7984  165.9663 C.ar    1  UNL1        0.1402
     14 F         137.3300  138.7083  167.2373 F       1  UNL1       -0.2042
     15 C         138.9116  137.6158  165.4894 C.ar    1  UNL1        0.0309
     16 C         139.7032  137.7059  164.2185 C.ar    1  UNL1        0.0168
     17 C         141.1130  144.8044  160.1175 C.3     1  UNL1        0.0294
     18 C         140.1005  145.7494  160.6937 C.3     1  UNL1        0.0666
     19 S         140.0913  146.0318  162.1668 S.3     1  UNL1       -0.0756
     20 C         138.8292  143.7023  164.0721 C.3     1  UNL1        0.1337
     21 N         140.2787  144.0772  163.9805 N.ar    1  UNL1       -0.2918
     22 C         140.8588  145.1479  163.1047 C.ar    1  UNL1        0.1930
     23 N         142.3413  145.1796  163.3314 N.ar    1  UNL1       -0.1224
     24 N         142.6774  144.1284  164.3473 N.ar    1  UNL1       -0.1328
     25 C         141.4027  143.4470  164.7485 C.ar    1  UNL1        0.1432
     26 C         141.2744  142.3315  165.7430 C.3     1  UNL1        0.0588
     27 C         140.4203  142.5090  166.9632 C.3     1  UNL1        0.0075
     28 C         140.2921  141.3934  167.9577 C.3     1  UNL1        0.0004
     29 C         141.0180  140.1003  167.7319 C.3     1  UNL1        0.0000
     30 C         141.8722  139.9228  166.5117 C.3     1  UNL1        0.0004
     31 C         142.0004  141.0384  165.5172 C.3     1  UNL1        0.0075
@<TRIPOS>BOND
     1    20    21    1
     2    21    22   ar
     3    22    19    1
     4    19    18    1
     5    18    17    1
     6    17     1    1
     7     1     2    1
     8     2     3    1
     9     3     4    1
    10     4     5    1
    11     5     6    1
    12     6     7    1
    13     7    10    1
    14    10    11   ar
    15    11    12   ar
    16    12    13   ar
    17    13    14    1
    18    13    15   ar
    19    15    16   ar
    20     7     8    1
    21     8     9    1
    22    22    23   ar
    23    23    24   ar
    24    24    25   ar
    25    25    26    1
    26    26    27    1
    27    27    28    1
    28    28    29    1
    29    29    30    1
    30    30    31    1
    31    25    21   ar
    32    31    26    1
    33     9     2    1
    34     8     4    1
    35    16    10   ar
@<TRIPOS>MOLECULE
*****
 31 35 0 0 0
SMALL
GASTEIGER

@<TRIPOS>ATOM
      1 C         144.1110  138.9480  161.1353 C.3     1  UNL1        0.0731
      2 N         144.0172  139.8920  162.2972 N.3     1  UNL1       -0.2712
      3 C         144.8840  141.0941  162.5288 C.3     1  UNL1        0.0738
      4 C         144.4426  141.7445  163.8063 C.3     1  UNL1        0.0372
      5 C         144.7055  142.8895  164.7390 C.3     1  UNL1        0.0245
      6 C         143.7284  142.7971  165.8734 C.3     1  UNL1        0.0909
      7 N         142.8617  141.5949  165.6418 N.pl3   1  UNL1       -0.3077
      8 C         143.3031  140.9445  164.3643 C.3     1  UNL1        0.0901
      9 C         143.0402  139.7995  163.4316 C.3     1  UNL1        0.0921
     10 C         141.7489  141.1257  166.5315 C.ar    1  UNL1        0.0480
     11 C         140.4773  140.6043  165.9306 C.ar    1  UNL1        0.0168
     12 C         139.3646  140.1350  166.8203 C.ar    1  UNL1        0.0309
     13 C         139.5234  140.1872  168.3109 C.ar    1  UNL1        0.1402
     14 F         138.4106  139.7180  169.2006 F       1  UNL1       -0.2042
     15 C         140.7950  140.7087  168.9119 C.ar    1  UNL1        0.0309
     16 C         141.9078  141.1779  168.0222 C.ar    1  UNL1        0.0168
     17 C         143.3801  139.2519  159.8611 C.3     1  UNL1        0.0294
     18 C         143.8424  140.3750  158.9808 C.3     1  UNL1        0.0666
     19 S         142.9411  141.5461  158.7236 S.3     1  UNL1       -0.0756
     20 C         140.2201  141.3297  160.5121 C.3     1  UNL1        0.1337
     21 N         141.3021  142.3560  160.6736 N.ar    1  UNL1       -0.2918
     22 C         142.5528  142.4554  159.8516 C.ar    1  UNL1        0.1930
     23 N         143.3470  143.6239  160.3555 N.ar    1  UNL1       -0.1224
     24 N         142.5872  144.2466  161.4890 N.ar    1  UNL1       -0.1328
     25 C         141.3233  143.4630  161.6857 C.ar    1  UNL1        0.1432
     26 C         140.2663  143.7381  162.7138 C.3     1  UNL1        0.0588
     27 C         140.6417  143.8628  164.1607 C.3     1  UNL1        0.0075
     28 C         139.5847  144.1379  165.1888 C.3     1  UNL1        0.0004
     29 C         138.1522  144.2883  164.7699 C.3     1  UNL1        0.0000
     30 C         137.7767  144.1637  163.3231 C.3     1  UNL1        0.0004
     31 C         138.8338  143.8886  162.2950 C.3     1  UNL1        0.0075
@<TRIPOS>BOND
     1    20    21    1
     2    21    22   ar
     3    22    19    1
     4    19    18    1
     5    18    17    1
     6    17     1    1
     7     1     2    1
     8     2     3    1
     9     3     4    1
    10     4     5    1
    11     5     6    1
    12     6     7    1
    13     7    10    1
    14    10    11   ar
    15    11    12   ar
    16    12    13   ar
    17    13    14    1
    18    13    15   ar
    19    15    16   ar
    20     7     8    1
    21     8     9    1
    22    22    23   ar
    23    23    24   ar
    24    24    25   ar
    25    25    26    1
    26    26    27    1
    27    27    28    1
    28    28    29    1
    29    29    30    1
    30    30    31    1
    31    25    21   ar
    32    31    26    1
    33     9     2    1
    34     8     4    1
    35    16    10   ar
@<TRIPOS>MOLECULE
*****
 31 35 0 0 0
SMALL
GASTEIGER

@<TRIPOS>ATOM
      1 C         142.7486  143.2596  160.1394 C.3     1  UNL1        0.0731
      2 N         142.8023  142.1518  161.1493 N.3     1  UNL1       -0.2712
      3 C         143.4106  140.7968  160.9401 C.3     1  UNL1        0.0738
      4 C         143.2413  140.0121  162.2073 C.3     1  UNL1        0.0372
      5 C         143.5126  138.6897  162.8611 C.3     1  UNL1        0.0245
      6 C         142.9674  138.7425  164.2576 C.3     1  UNL1        0.0909
      7 N         142.3591  140.0976  164.4667 N.pl3   1  UNL1       -0.3077
      8 C         142.5284  140.8823  163.1996 C.3     1  UNL1        0.0901
      9 C         142.2571  142.2047  162.5457 C.3     1  UNL1        0.0921
     10 C         141.6977  140.5829  165.7226 C.ar    1  UNL1        0.0480
     11 C         141.6170  139.6862  166.9223 C.ar    1  UNL1        0.0168
     12 C         140.9556  140.1715  168.1782 C.ar    1  UNL1        0.0309
     13 C         140.3749  141.5533  168.2342 C.ar    1  UNL1        0.1402
     14 F         139.7135  142.0386  169.4900 F       1  UNL1       -0.2042
     15 C         140.4555  142.4500  167.0344 C.ar    1  UNL1        0.0309
     16 C         141.1170  141.9648  165.7786 C.ar    1  UNL1        0.0168
     17 C         141.7882  143.1807  158.9899 C.3     1  UNL1        0.0294
     18 C         140.4343  143.8173  159.0984 C.3     1  UNL1        0.0666
     19 S         139.2184  142.9634  159.3038 S.3     1  UNL1       -0.0756
     20 C         139.8243  140.0647  160.6749 C.3     1  UNL1        0.1337
     21 N         139.1009  141.2105  161.3183 N.ar    1  UNL1       -0.2918
     22 C         138.8224  142.5428  160.6881 C.ar    1  UNL1        0.1930
     23 N         138.0784  143.3808  161.6852 N.ar    1  UNL1       -0.1224
     24 N         137.8970  142.5664  162.9317 N.ar    1  UNL1       -0.1328
     25 C         138.5290  141.2250  162.7050 C.ar    1  UNL1        0.1432
     26 C         138.5801  140.0963  163.6917 C.3     1  UNL1        0.0588
     27 C         139.1976  138.7863  163.3014 C.3     1  UNL1        0.0075
     28 C         139.2487  137.6576  164.2881 C.3     1  UNL1        0.0004
     29 C         138.6822  137.8392  165.6651 C.3     1  UNL1        0.0000
     30 C         138.0647  139.1492  166.0555 C.3     1  UNL1        0.0004
     31 C         138.0136  140.2778  165.0687 C.3     1  UNL1        0.0075
@<TRIPOS>BOND
     1    20    21    1
     2    21    22   ar
     3    22    19    1
     4    19    18    1
     5    18    17    1
     6    17     1    1
     7     1     2    1
     8     2     3    1
     9     3     4    1
    10     4     5    1
    11     5     6    1
    12     6     7    1
    13     7    10    1
    14    10    11   ar
    15    11    12   ar
    16    12    13   ar
    17    13    14    1
    18    13    15   ar
    19    15    16   ar
    20     7     8    1
    21     8     9    1
    22    22    23   ar
    23    23    24   ar
    24    24    25   ar
    25    25    26    1
    26    26    27    1
    27    27    28    1
    28    28    29    1
    29    29    30    1
    30    30    31    1
    31    25    21   ar
    32    31    26    1
    33     9     2    1
    34     8     4    1
    35    16    10   ar
