@<TRIPOS>MOLECULE
*****
 31 33 0 0 0
SMALL
GASTEIGER

@<TRIPOS>ATOM
      1 C         141.8776  140.8773  167.2637 C.ar    1  UNL1        0.1409
      2 N         140.6869  140.3586  166.5132 N.ar    1  UNL1       -0.1986
      3 C         139.5018  139.8257  167.2626 C.ar    1  UNL1        0.2181
      4 N         139.5074  139.8115  168.7625 N.ar    1  UNL1       -0.2120
      5 C         140.6980  140.3301  169.5130 C.ar    1  UNL1        0.1091
      6 C         141.8831  140.8630  168.7637 C.ar    1  UNL1        0.1040
      7 C         143.0738  141.3817  169.5143 C.2     1  UNL1        0.2470
      8 N         143.6377  140.5965  170.6612 N.am    1  UNL1       -0.3252
      9 O         143.7005  142.6856  169.1178 O.2     1  UNL1       -0.2702
     10 H         143.2263  139.7407  170.9213 H       1  UNL1        0.1453
     11 H         144.4191  140.9369  171.1538 H       1  UNL1        0.1453
     12 N         143.0627  141.4102  166.5144 N.pl3   1  UNL1       -0.2977
     13 H         143.9387  140.9693  166.6010 H       1  UNL1        0.1536
     14 C         140.0339  144.7183  163.8909 C.3     1  UNL1        0.0311
     15 C         141.3987  144.2688  164.3214 C.ar    1  UNL1       -0.0206
     16 C         142.6139  145.0239  163.8707 C.ar    1  UNL1       -0.0042
     17 C         143.9786  144.5744  164.3012 C.ar    1  UNL1        0.0009
     18 C         144.1283  143.3699  165.1824 C.ar    1  UNL1        0.0146
     19 C         142.9131  142.6148  165.6331 C.ar    1  UNL1        0.0491
     20 C         141.5483  143.0643  165.2026 C.ar    1  UNL1        0.0104
     21 N         138.3111  139.3071  166.5120 N.pl3   1  UNL1       -0.3033
     22 H         137.4763  139.1042  166.9928 H       1  UNL1        0.1496
     23 C         138.3925  139.0975  165.0289 C.3     1  UNL1        0.0858
     24 C         138.8434  137.7757  164.4818 C.3     1  UNL1        0.0209
     25 C         138.9247  137.5662  162.9987 C.3     1  UNL1        0.0018
     26 C         138.5551  138.6785  162.0628 C.3     1  UNL1        0.0015
     27 C         138.1042  140.0004  162.6099 C.3     1  UNL1        0.0172
     28 C         138.0229  140.2099  164.0930 C.3     1  UNL1        0.0690
     29 N         137.5719  141.5318  164.6401 N.3     1  UNL1       -0.3209
     30 H         137.5764  141.4972  165.6595 H       1  UNL1        0.1189
     31 H         136.6275  141.7317  164.3109 H       1  UNL1        0.1189
@<TRIPOS>BOND
     1    14    15    1
     2    15    16   ar
     3    16    17   ar
     4    17    18   ar
     5    18    19   ar
     6    19    12    1
     7    12     1    1
     8     1     2   ar
     9     2     3   ar
    10     3    21    1
    11    23    21    1
    12    23    24    1
    13    24    25    1
    14    25    26    1
    15    26    27    1
    16    27    28    1
    17    28    29    1
    18     3     4   ar
    19     4     5   ar
    20     5     6   ar
    21     6     7    1
    22     7     8   am
    23     7     9    2
    24    19    20   ar
    25    20    15   ar
    26     6     1   ar
    27    28    23    1
    28    12    13    1
    29    21    22    1
    30    29    30    1
    31    29    31    1
    32     8    10    1
    33     8    11    1
@<TRIPOS>MOLECULE
*****
 31 33 0 0 0
SMALL
GASTEIGER

@<TRIPOS>ATOM
      1 C         137.8577  140.0804  163.7419 C.ar    1  UNL1        0.1409
      2 N         137.9586  140.1212  165.2380 N.ar    1  UNL1       -0.1986
      3 C         138.5528  138.9619  165.9815 C.ar    1  UNL1        0.2181
      4 N         139.0461  137.7618  165.2290 N.ar    1  UNL1       -0.2120
      5 C         138.9452  137.7209  163.7330 C.ar    1  UNL1        0.1091
      6 C         138.3510  138.8802  162.9894 C.ar    1  UNL1        0.1040
      7 C         138.2501  138.8394  161.4934 C.2     1  UNL1        0.2470
      8 N         139.2926  138.1191  160.6907 N.am    1  UNL1       -0.3252
      9 O         137.1067  139.5190  160.8000 O.2     1  UNL1       -0.2702
     10 H         140.0431  137.6731  161.1458 H       1  UNL1        0.1453
     11 H         139.2264  138.0923  159.7088 H       1  UNL1        0.1453
     12 N         137.2634  141.2397  162.9984 N.pl3   1  UNL1       -0.2977
     13 H         136.3993  141.1382  162.5378 H       1  UNL1        0.1536
     14 C         140.2488  144.6552  160.4642 C.3     1  UNL1        0.0311
     15 C         139.4785  144.2614  161.6896 C.ar    1  UNL1       -0.0206
     16 C         139.4306  145.1815  162.8732 C.ar    1  UNL1       -0.0042
     17 C         138.6603  144.7877  164.0986 C.ar    1  UNL1        0.0009
     18 C         137.9379  143.4738  164.1404 C.ar    1  UNL1        0.0146
     19 C         137.9858  142.5537  162.9567 C.ar    1  UNL1        0.0491
     20 C         138.7561  142.9475  161.7313 C.ar    1  UNL1        0.0104
     21 N         138.6537  139.0027  167.4776 N.pl3   1  UNL1       -0.3033
     22 H         138.2415  138.2907  168.0184 H       1  UNL1        0.1496
     23 C         139.3827  140.1283  168.1497 C.3     1  UNL1        0.0858
     24 C         140.4087  140.9164  167.3907 C.3     1  UNL1        0.0209
     25 C         141.1378  142.0420  168.0628 C.3     1  UNL1        0.0018
     26 C         140.8408  142.3793  169.4939 C.3     1  UNL1        0.0015
     27 C         139.8147  141.5911  170.2529 C.3     1  UNL1        0.0172
     28 C         139.0857  140.4656  169.5808 C.3     1  UNL1        0.0690
     29 N         138.0597  139.6773  170.3397 N.3     1  UNL1       -0.3209
     30 H         137.6672  138.9572  169.7333 H       1  UNL1        0.1189
     31 H         137.3155  140.3006  170.6530 H       1  UNL1        0.1189
@<TRIPOS>BOND
     1    14    15    1
     2    15    16   ar
     3    16    17   ar
     4    17    18   ar
     5    18    19   ar
     6    19    12    1
     7    12     1    1
     8     1     2   ar
     9     2     3   ar
    10     3    21    1
    11    23    21    1
    12    23    24    1
    13    24    25    1
    14    25    26    1
    15    26    27    1
    16    27    28    1
    17    28    29    1
    18     3     4   ar
    19     4     5   ar
    20     5     6   ar
    21     6     7    1
    22     7     8   am
    23     7     9    2
    24    19    20   ar
    25    20    15   ar
    26     6     1   ar
    27    28    23    1
    28    12    13    1
    29    21    22    1
    30    29    30    1
    31    29    31    1
    32     8    10    1
    33     8    11    1
@<TRIPOS>MOLECULE
*****
 31 33 0 0 0
SMALL
GASTEIGER

@<TRIPOS>ATOM
      1 C         141.8327  141.3715  167.1677 C.ar    1  UNL1        0.1409
      2 N         140.6702  141.0196  166.2875 N.ar    1  UNL1       -0.1986
      3 C         139.5207  140.2316  166.8425 C.ar    1  UNL1        0.2181
      4 N         139.5339  139.7956  168.2777 N.ar    1  UNL1       -0.2120
      5 C         140.6964  140.1475  169.1579 C.ar    1  UNL1        0.1091
      6 C         141.8458  140.9354  168.6029 C.ar    1  UNL1        0.1040
      7 C         143.0083  141.2874  169.4831 C.2     1  UNL1        0.2470
      8 N         143.4422  140.3438  170.5654 N.am    1  UNL1       -0.3252
      9 O         143.7368  142.5829  169.2810 O.2     1  UNL1       -0.2702
     10 H         142.9641  139.4935  170.6980 H       1  UNL1        0.1453
     11 H         144.2052  140.5748  171.1430 H       1  UNL1        0.1453
     12 N         142.9821  142.1594  166.6128 N.pl3   1  UNL1       -0.2977
     13 H         143.2935  142.9695  167.0775 H       1  UNL1        0.1536
     14 C         143.6179  138.6250  162.8573 C.3     1  UNL1        0.0311
     15 C         143.9749  139.9459  163.4720 C.ar    1  UNL1       -0.0206
     16 C         145.0067  140.8204  162.8236 C.ar    1  UNL1       -0.0042
     17 C         145.3637  142.1413  163.4383 C.ar    1  UNL1        0.0009
     18 C         144.6889  142.5876  164.7013 C.ar    1  UNL1        0.0146
     19 C         143.6570  141.7131  165.3497 C.ar    1  UNL1        0.0491
     20 C         143.3000  140.3922  164.7350 C.ar    1  UNL1        0.0104
     21 N         138.3582  139.8797  165.9624 N.pl3   1  UNL1       -0.3033
     22 H         137.4381  140.0266  166.2800 H       1  UNL1        0.1496
     23 C         138.5978  139.3039  164.5981 C.3     1  UNL1        0.0858
     24 C         139.4928  138.1115  164.4338 C.3     1  UNL1        0.0209
     25 C         139.7323  137.5357  163.0696 C.3     1  UNL1        0.0018
     26 C         139.0768  138.1524  161.8696 C.3     1  UNL1        0.0015
     27 C         138.1817  139.3448  162.0339 C.3     1  UNL1        0.0172
     28 C         137.9422  139.9206  163.3981 C.3     1  UNL1        0.0690
     29 N         137.0471  141.1130  163.5624 N.3     1  UNL1       -0.3209
     30 H         136.9982  141.3681  164.5488 H       1  UNL1        0.1189
     31 H         136.1124  140.8858  163.2233 H       1  UNL1        0.1189
@<TRIPOS>BOND
     1    14    15    1
     2    15    16   ar
     3    16    17   ar
     4    17    18   ar
     5    18    19   ar
     6    19    12    1
     7    12     1    1
     8     1     2   ar
     9     2     3   ar
    10     3    21    1
    11    23    21    1
    12    23    24    1
    13    24    25    1
    14    25    26    1
    15    26    27    1
    16    27    28    1
    17    28    29    1
    18     3     4   ar
    19     4     5   ar
    20     5     6   ar
    21     6     7    1
    22     7     8   am
    23     7     9    2
    24    19    20   ar
    25    20    15   ar
    26     6     1   ar
    27    28    23    1
    28    12    13    1
    29    21    22    1
    30    29    30    1
    31    29    31    1
    32     8    10    1
    33     8    11    1
@<TRIPOS>MOLECULE
*****
 31 33 0 0 0
SMALL
GASTEIGER

@<TRIPOS>ATOM
      1 C         140.2671  140.0545  166.4181 C.ar    1  UNL1        0.1409
      2 N         140.9270  140.7655  165.2739 N.ar    1  UNL1       -0.1986
      3 C         140.1431  141.0804  164.0343 C.ar    1  UNL1        0.2181
      4 N         138.6995  140.6844  163.9389 N.ar    1  UNL1       -0.2120
      5 C         138.0397  139.9734  165.0831 C.ar    1  UNL1        0.1091
      6 C         138.8234  139.6585  166.3226 C.ar    1  UNL1        0.1040
      7 C         138.1635  138.9475  167.4668 C.2     1  UNL1        0.2470
      8 N         137.2841  137.7608  167.2055 N.am    1  UNL1       -0.3252
      9 O         138.3831  139.4234  168.8723 O.2     1  UNL1       -0.2702
     10 H         137.1400  137.4485  166.2830 H       1  UNL1        0.1453
     11 H         136.8511  137.2942  167.9564 H       1  UNL1        0.1453
     12 N         141.0508  139.7396  167.6576 N.pl3   1  UNL1       -0.2977
     13 H         141.2193  138.8027  167.9087 H       1  UNL1        0.1536
     14 C         140.3458  144.2987  170.0488 C.3     1  UNL1        0.0311
     15 C         141.2253  143.1317  169.7102 C.ar    1  UNL1       -0.0206
     16 C         142.6318  143.0773  170.2287 C.ar    1  UNL1       -0.0042
     17 C         143.5113  141.9103  169.8901 C.ar    1  UNL1        0.0009
     18 C         142.9843  140.7978  169.0331 C.ar    1  UNL1        0.0146
     19 C         141.5778  140.8522  168.5147 C.ar    1  UNL1        0.0491
     20 C         140.6983  142.0192  168.8532 C.ar    1  UNL1        0.0104
     21 N         140.8030  141.7913  162.8901 N.pl3   1  UNL1       -0.3033
     22 H         140.6148  141.5146  161.9643 H       1  UNL1        0.1496
     23 C         141.7497  142.9240  163.1566 C.3     1  UNL1        0.0858
     24 C         143.2301  142.7027  163.0599 C.3     1  UNL1        0.0209
     25 C         144.1767  143.8354  163.3265 C.3     1  UNL1        0.0018
     26 C         143.6429  145.1893  163.6897 C.3     1  UNL1        0.0015
     27 C         142.1624  145.4106  163.7864 C.3     1  UNL1        0.0172
     28 C         141.2159  144.2779  163.5199 C.3     1  UNL1        0.0690
     29 N         139.7354  144.4992  163.6166 N.3     1  UNL1       -0.3209
     30 H         139.2470  143.6289  163.4054 H       1  UNL1        0.1189
     31 H         139.4546  145.2173  162.9488 H       1  UNL1        0.1189
@<TRIPOS>BOND
     1    14    15    1
     2    15    16   ar
     3    16    17   ar
     4    17    18   ar
     5    18    19   ar
     6    19    12    1
     7    12     1    1
     8     1     2   ar
     9     2     3   ar
    10     3    21    1
    11    23    21    1
    12    23    24    1
    13    24    25    1
    14    25    26    1
    15    26    27    1
    16    27    28    1
    17    28    29    1
    18     3     4   ar
    19     4     5   ar
    20     5     6   ar
    21     6     7    1
    22     7     8   am
    23     7     9    2
    24    19    20   ar
    25    20    15   ar
    26     6     1   ar
    27    28    23    1
    28    12    13    1
    29    21    22    1
    30    29    30    1
    31    29    31    1
    32     8    10    1
    33     8    11    1
@<TRIPOS>MOLECULE
*****
 31 33 0 0 0
SMALL
GASTEIGER

@<TRIPOS>ATOM
      1 C         140.0024  140.0628  165.1785 C.ar    1  UNL1        0.1409
      2 N         140.3312  140.3224  166.6187 N.ar    1  UNL1       -0.1986
      3 C         139.5086  139.6896  167.7018 C.ar    1  UNL1        0.2181
      4 N         138.3572  138.7971  167.3445 N.ar    1  UNL1       -0.2120
      5 C         138.0283  138.5375  165.9042 C.ar    1  UNL1        0.1091
      6 C         138.8508  139.1703  164.8212 C.ar    1  UNL1        0.1040
      7 C         138.5219  138.9107  163.3809 C.2     1  UNL1        0.2470
      8 N         138.6062  137.5174  162.8317 N.am    1  UNL1       -0.3252
      9 O         138.1087  140.0445  162.4898 O.2     1  UNL1       -0.2702
     10 H         138.8774  136.7734  163.4165 H       1  UNL1        0.1453
     11 H         138.3904  137.3471  161.8864 H       1  UNL1        0.1453
     12 N         140.8249  140.6956  164.0955 N.pl3   1  UNL1       -0.2977
     13 H         141.2965  140.1304  163.4417 H       1  UNL1        0.1536
     14 C         143.7177  144.9841  163.6045 C.3     1  UNL1        0.0311
     15 C         142.3753  144.3337  163.7631 C.ar    1  UNL1       -0.0206
     16 C         141.1370  145.1772  163.8347 C.ar    1  UNL1       -0.0042
     17 C         139.7947  144.5268  163.9933 C.ar    1  UNL1        0.0009
     18 C         139.6907  143.0330  164.0802 C.ar    1  UNL1        0.0146
     19 C         140.9289  142.1895  164.0085 C.ar    1  UNL1        0.0491
     20 C         142.2713  142.8399  163.8500 C.ar    1  UNL1        0.0104
     21 N         139.8375  139.9492  169.1421 N.pl3   1  UNL1       -0.3033
     22 H         139.3578  139.4639  169.8517 H       1  UNL1        0.1496
     23 C         140.8973  140.9482  169.5011 C.3     1  UNL1        0.0858
     24 C         140.5268  142.3821  169.7385 C.3     1  UNL1        0.0209
     25 C         141.5866  143.3811  170.0975 C.3     1  UNL1        0.0018
     26 C         143.0170  142.9461  170.2190 C.3     1  UNL1        0.0015
     27 C         143.3875  141.5120  169.9816 C.3     1  UNL1        0.0172
     28 C         142.3277  140.5131  169.6226 C.3     1  UNL1        0.0690
     29 N         142.6982  139.0791  169.3852 N.3     1  UNL1       -0.3209
     30 H         141.8605  138.5453  169.1535 H       1  UNL1        0.1189
     31 H         143.1244  138.6940  170.2281 H       1  UNL1        0.1189
@<TRIPOS>BOND
     1    14    15    1
     2    15    16   ar
     3    16    17   ar
     4    17    18   ar
     5    18    19   ar
     6    19    12    1
     7    12     1    1
     8     1     2   ar
     9     2     3   ar
    10     3    21    1
    11    23    21    1
    12    23    24    1
    13    24    25    1
    14    25    26    1
    15    26    27    1
    16    27    28    1
    17    28    29    1
    18     3     4   ar
    19     4     5   ar
    20     5     6   ar
    21     6     7    1
    22     7     8   am
    23     7     9    2
    24    19    20   ar
    25    20    15   ar
    26     6     1   ar
    27    28    23    1
    28    12    13    1
    29    21    22    1
    30    29    30    1
    31    29    31    1
    32     8    10    1
    33     8    11    1
@<TRIPOS>MOLECULE
*****
 31 33 0 0 0
SMALL
GASTEIGER

@<TRIPOS>ATOM
      1 C         140.1517  139.6862  167.2085 C.ar    1  UNL1        0.1409
      2 N         141.2303  139.2181  166.2771 N.ar    1  UNL1       -0.1986
      3 C         142.6376  139.0685  166.7741 C.ar    1  UNL1        0.2181
      4 N         142.9665  139.3869  168.2025 N.ar    1  UNL1       -0.2120
      5 C         141.8879  139.8550  169.1340 C.ar    1  UNL1        0.1091
      6 C         140.4806  140.0047  168.6370 C.ar    1  UNL1        0.1040
      7 C         139.4021  140.4728  169.5685 C.2     1  UNL1        0.2470
      8 N         139.5720  141.7545  170.3288 N.am    1  UNL1       -0.3252
      9 O         138.1536  139.6590  169.7397 O.2     1  UNL1       -0.2702
     10 H         140.3913  142.2886  170.2165 H       1  UNL1        0.1453
     11 H         138.8641  142.0617  170.9402 H       1  UNL1        0.1453
     12 N         138.7444  139.8358  166.7116 N.pl3   1  UNL1       -0.2977
     13 H         137.9895  139.7502  167.3378 H       1  UNL1        0.1536
     14 C         138.2905  138.1550  161.8158 C.3     1  UNL1        0.0311
     15 C         138.2602  139.2754  162.8127 C.ar    1  UNL1       -0.0206
     16 C         137.9726  140.6758  162.3586 C.ar    1  UNL1       -0.0042
     17 C         137.9423  141.7962  163.3555 C.ar    1  UNL1        0.0009
     18 C         138.1996  141.5162  164.8065 C.ar    1  UNL1        0.0146
     19 C         138.4871  140.1158  165.2606 C.ar    1  UNL1        0.0491
     20 C         138.5174  138.9954  164.2637 C.ar    1  UNL1        0.0104
     21 N         143.7162  138.6004  165.8426 N.pl3   1  UNL1       -0.3033
     22 H         144.2848  137.8364  166.0922 H       1  UNL1        0.1496
     23 C         143.9283  139.2963  164.5308 C.3     1  UNL1        0.0858
     24 C         144.9792  140.3594  164.4071 C.3     1  UNL1        0.0209
     25 C         145.1914  141.0553  163.0953 C.3     1  UNL1        0.0018
     26 C         144.3526  140.6881  161.9072 C.3     1  UNL1        0.0015
     27 C         143.3017  139.6249  162.0309 C.3     1  UNL1        0.0172
     28 C         143.0896  138.9290  163.3427 C.3     1  UNL1        0.0690
     29 N         142.0386  137.8658  163.4664 N.3     1  UNL1       -0.3209
     30 H         142.0324  137.5032  164.4197 H       1  UNL1        0.1189
     31 H         142.2437  137.1077  162.8156 H       1  UNL1        0.1189
@<TRIPOS>BOND
     1    14    15    1
     2    15    16   ar
     3    16    17   ar
     4    17    18   ar
     5    18    19   ar
     6    19    12    1
     7    12     1    1
     8     1     2   ar
     9     2     3   ar
    10     3    21    1
    11    23    21    1
    12    23    24    1
    13    24    25    1
    14    25    26    1
    15    26    27    1
    16    27    28    1
    17    28    29    1
    18     3     4   ar
    19     4     5   ar
    20     5     6   ar
    21     6     7    1
    22     7     8   am
    23     7     9    2
    24    19    20   ar
    25    20    15   ar
    26     6     1   ar
    27    28    23    1
    28    12    13    1
    29    21    22    1
    30    29    30    1
    31    29    31    1
    32     8    10    1
    33     8    11    1
@<TRIPOS>MOLECULE
*****
 31 33 0 0 0
SMALL
GASTEIGER

@<TRIPOS>ATOM
      1 C         140.2852  139.2876  165.3665 C.ar    1  UNL1        0.1409
      2 N         140.7417  139.9401  166.6377 N.ar    1  UNL1       -0.1986
      3 C         142.1229  139.6780  167.1611 C.ar    1  UNL1        0.2181
      4 N         143.0473  138.7636  166.4133 N.ar    1  UNL1       -0.2120
      5 C         142.5907  138.1111  165.1422 C.ar    1  UNL1        0.1091
      6 C         141.2097  138.3731  164.6188 C.ar    1  UNL1        0.1040
      7 C         140.7531  137.7207  163.3476 C.2     1  UNL1        0.2470
      8 N         141.7418  137.4257  162.2589 N.am    1  UNL1       -0.3252
      9 O         139.3077  137.3632  163.1653 O.2     1  UNL1       -0.2702
     10 H         142.6904  137.6604  162.3785 H       1  UNL1        0.1453
     11 H         141.4421  136.9975  161.4246 H       1  UNL1        0.1453
     12 N         138.9041  139.5496  164.8431 N.pl3   1  UNL1       -0.2977
     13 H         138.2145  138.8494  164.9014 H       1  UNL1        0.1536
     14 C         138.5253  144.7169  165.2382 C.3     1  UNL1        0.0311
     15 C         138.3842  143.4621  164.4284 C.ar    1  UNL1       -0.0206
     16 C         137.9128  143.5363  163.0064 C.ar    1  UNL1       -0.0042
     17 C         137.7717  142.2816  162.1966 C.ar    1  UNL1        0.0009
     18 C         138.1022  140.9527  162.8088 C.ar    1  UNL1        0.0146
     19 C         138.5736  140.8785  164.2308 C.ar    1  UNL1        0.0491
     20 C         138.7147  142.1333  165.0406 C.ar    1  UNL1        0.0104
     21 N         142.5795  140.3305  168.4322 N.pl3   1  UNL1       -0.3033
     22 H         143.4844  140.1552  168.7780 H       1  UNL1        0.1496
     23 C         141.6572  141.2501  169.1765 C.3     1  UNL1        0.0858
     24 C         141.6034  142.7065  168.8219 C.3     1  UNL1        0.0209
     25 C         140.6812  143.6261  169.5662 C.3     1  UNL1        0.0018
     26 C         139.8128  143.0892  170.6651 C.3     1  UNL1        0.0015
     27 C         139.8666  141.6326  171.0197 C.3     1  UNL1        0.0172
     28 C         140.7888  140.7131  170.2754 C.3     1  UNL1        0.0690
     29 N         140.8427  139.2566  170.6300 N.3     1  UNL1       -0.3209
     30 H         141.5177  138.7848  170.0281 H       1  UNL1        0.1189
     31 H         139.9208  138.8403  170.4985 H       1  UNL1        0.1189
@<TRIPOS>BOND
     1    14    15    1
     2    15    16   ar
     3    16    17   ar
     4    17    18   ar
     5    18    19   ar
     6    19    12    1
     7    12     1    1
     8     1     2   ar
     9     2     3   ar
    10     3    21    1
    11    23    21    1
    12    23    24    1
    13    24    25    1
    14    25    26    1
    15    26    27    1
    16    27    28    1
    17    28    29    1
    18     3     4   ar
    19     4     5   ar
    20     5     6   ar
    21     6     7    1
    22     7     8   am
    23     7     9    2
    24    19    20   ar
    25    20    15   ar
    26     6     1   ar
    27    28    23    1
    28    12    13    1
    29    21    22    1
    30    29    30    1
    31    29    31    1
    32     8    10    1
    33     8    11    1
@<TRIPOS>MOLECULE
*****
 31 33 0 0 0
SMALL
GASTEIGER

@<TRIPOS>ATOM
      1 C         140.4027  141.5300  168.1965 C.ar    1  UNL1        0.1409
      2 N         139.9000  140.5491  167.1790 N.ar    1  UNL1       -0.1986
      3 C         138.8628  139.5357  167.5628 C.ar    1  UNL1        0.2181
      4 N         138.3285  139.5031  168.9640 N.ar    1  UNL1       -0.2120
      5 C         138.8312  140.4840  169.9814 C.ar    1  UNL1        0.1091
      6 C         139.8683  141.4974  169.5977 C.ar    1  UNL1        0.1040
      7 C         140.3710  142.4783  170.6151 C.2     1  UNL1        0.2470
      8 N         139.9244  143.9093  170.5620 N.am    1  UNL1       -0.3252
      9 O         141.3204  142.0282  171.6857 O.2     1  UNL1       -0.2702
     10 H         139.3013  144.2047  169.8593 H       1  UNL1        0.1453
     11 H         140.2544  144.5530  171.2297 H       1  UNL1        0.1453
     12 N         141.4398  142.5434  167.8127 N.pl3   1  UNL1       -0.2977
     13 H         141.8239  143.1381  168.4969 H       1  UNL1        0.1536
     14 C         145.1652  142.0526  164.2237 C.3     1  UNL1        0.0311
     15 C         143.7546  142.4055  164.5920 C.ar    1  UNL1       -0.0206
     16 C         142.7960  142.8658  163.5341 C.ar    1  UNL1       -0.0042
     17 C         141.3854  143.2186  163.9023 C.ar    1  UNL1        0.0009
     18 C         140.9333  143.1112  165.3285 C.ar    1  UNL1        0.0146
     19 C         141.8919  142.6509  166.3864 C.ar    1  UNL1        0.0491
     20 C         143.3025  142.2980  166.0181 C.ar    1  UNL1        0.0104
     21 N         138.3601  138.5548  166.5454 N.pl3   1  UNL1       -0.3033
     22 H         137.6518  137.9150  166.7865 H       1  UNL1        0.1496
     23 C         138.9367  138.5488  165.1606 C.3     1  UNL1        0.0858
     24 C         139.8524  137.4399  164.7343 C.3     1  UNL1        0.0209
     25 C         140.4290  137.4339  163.3495 C.3     1  UNL1        0.0018
     26 C         140.0897  138.5368  162.3911 C.3     1  UNL1        0.0015
     27 C         139.1739  139.6457  162.8174 C.3     1  UNL1        0.0172
     28 C         138.5974  139.6516  164.2022 C.3     1  UNL1        0.0690
     29 N         137.6816  140.7605  164.6286 N.3     1  UNL1       -0.3209
     30 H         137.3862  140.6059  165.5925 H       1  UNL1        0.1189
     31 H         136.8628  140.7779  164.0207 H       1  UNL1        0.1189
@<TRIPOS>BOND
     1    14    15    1
     2    15    16   ar
     3    16    17   ar
     4    17    18   ar
     5    18    19   ar
     6    19    12    1
     7    12     1    1
     8     1     2   ar
     9     2     3   ar
    10     3    21    1
    11    23    21    1
    12    23    24    1
    13    24    25    1
    14    25    26    1
    15    26    27    1
    16    27    28    1
    17    28    29    1
    18     3     4   ar
    19     4     5   ar
    20     5     6   ar
    21     6     7    1
    22     7     8   am
    23     7     9    2
    24    19    20   ar
    25    20    15   ar
    26     6     1   ar
    27    28    23    1
    28    12    13    1
    29    21    22    1
    30    29    30    1
    31    29    31    1
    32     8    10    1
    33     8    11    1
@<TRIPOS>MOLECULE
*****
 31 33 0 0 0
SMALL
GASTEIGER

@<TRIPOS>ATOM
      1 C         140.1921  143.1257  163.2900 C.ar    1  UNL1        0.1409
      2 N         141.3889  142.4728  163.9156 N.ar    1  UNL1       -0.1986
      3 C         142.6014  143.2910  164.2480 C.ar    1  UNL1        0.2181
      4 N         142.6171  144.7620  163.9548 N.ar    1  UNL1       -0.2120
      5 C         141.4202  145.4148  163.3292 C.ar    1  UNL1        0.1091
      6 C         140.2078  144.5967  162.9968 C.ar    1  UNL1        0.1040
      7 C         139.0109  145.2495  162.3712 C.2     1  UNL1        0.2470
      8 N         139.1926  146.3990  161.4249 N.am    1  UNL1       -0.3252
      9 O         137.6323  144.7528  162.6920 O.2     1  UNL1       -0.2702
     10 H         140.0974  146.7250  161.2143 H       1  UNL1        0.1453
     11 H         138.4071  146.8275  161.0143 H       1  UNL1        0.1453
     12 N         138.9796  142.3075  162.9576 N.pl3   1  UNL1       -0.2977
     13 H         138.2475  142.7036  162.4318 H       1  UNL1        0.1536
     14 C         138.0131  138.8697  166.7322 C.3     1  UNL1        0.0311
     15 C         138.3992  139.1670  165.3135 C.ar    1  UNL1       -0.0206
     16 C         138.6882  138.0428  164.3636 C.ar    1  UNL1       -0.0042
     17 C         139.0744  138.3401  162.9450 C.ar    1  UNL1        0.0009
     18 C         139.1715  139.7616  162.4763 C.ar    1  UNL1        0.0146
     19 C         138.8825  140.8859  163.4262 C.ar    1  UNL1        0.0491
     20 C         138.4963  140.5886  164.8449 C.ar    1  UNL1        0.0104
     21 N         143.7983  142.6382  164.8736 N.pl3   1  UNL1       -0.3033
     22 H         144.6453  143.1340  164.9508 H       1  UNL1        0.1496
     23 C         143.7046  141.2298  165.3814 C.3     1  UNL1        0.0858
     24 C         142.8970  140.9272  166.6086 C.3     1  UNL1        0.0209
     25 C         142.8033  139.5189  167.1165 C.3     1  UNL1        0.0018
     26 C         143.5172  138.4131  166.3970 C.3     1  UNL1        0.0015
     27 C         144.3249  138.7158  165.1697 C.3     1  UNL1        0.0172
     28 C         144.4185  140.1241  164.6619 C.3     1  UNL1        0.0690
     29 N         145.2262  140.4267  163.4346 N.3     1  UNL1       -0.3209
     30 H         145.1796  141.4259  163.2348 H       1  UNL1        0.1189
     31 H         144.8510  139.9039  162.6432 H       1  UNL1        0.1189
@<TRIPOS>BOND
     1    14    15    1
     2    15    16   ar
     3    16    17   ar
     4    17    18   ar
     5    18    19   ar
     6    19    12    1
     7    12     1    1
     8     1     2   ar
     9     2     3   ar
    10     3    21    1
    11    23    21    1
    12    23    24    1
    13    24    25    1
    14    25    26    1
    15    26    27    1
    16    27    28    1
    17    28    29    1
    18     3     4   ar
    19     4     5   ar
    20     5     6   ar
    21     6     7    1
    22     7     8   am
    23     7     9    2
    24    19    20   ar
    25    20    15   ar
    26     6     1   ar
    27    28    23    1
    28    12    13    1
    29    21    22    1
    30    29    30    1
    31    29    31    1
    32     8    10    1
    33     8    11    1
