@<TRIPOS>MOLECULE
*****
 33 36 0 0 0
SMALL
GASTEIGER

@<TRIPOS>ATOM
      1 C         140.2748  139.4085  164.8339 C.ar    1  UNL1        0.0522
      2 C         140.9655  140.0477  163.6659 C.ar    1  UNL1        0.0167
      3 C         140.7538  139.5082  162.2823 C.ar    1  UNL1        0.0505
      4 C         139.8514  138.3295  162.0669 C.ar    1  UNL1        0.0170
      5 C         139.1606  137.6903  163.2350 C.ar    1  UNL1        0.0307
      6 C         139.3724  138.2299  164.6185 C.ar    1  UNL1        0.1401
      7 F         138.6817  137.5907  165.7866 F       1  UNL1       -0.2044
      8 C         139.2040  140.6399  165.8615 C.3     1  UNL1        0.0601
      9 C         140.4864  139.9480  166.2175 C.3     1  UNL1        0.2163
     10 C         140.2527  140.7278  167.4775 C.3     1  UNL1        0.1614
     11 N         141.2278  140.6283  168.6128 N.ar    1  UNL1       -0.2929
     12 C         141.2613  141.2735  169.9665 C.ar    1  UNL1        0.1503
     13 C         142.4910  140.7931  170.6787 C.ar    1  UNL1        0.1285
     14 N         143.2174  139.8509  169.7651 N.ar    1  UNL1       -0.2180
     15 C         142.4367  139.7491  168.4883 C.ar    1  UNL1        0.2279
     16 C         142.6705  138.9693  167.2284 C.2     1  UNL1        0.3476
     17 N         143.8794  138.0901  167.1039 N.pl3   1  UNL1       -0.2439
     18 N         141.6953  139.0688  166.0930 N.2     1  UNL1       -0.0653
     19 H         144.5194  138.0248  167.8491 H       1  UNL1        0.2885
     20 H         144.0328  137.5783  166.2770 H       1  UNL1        0.2885
     21 C         140.2439  142.2311  170.5123 C.1     1  UNL1        0.1196
     22 N         139.2264  143.1887  171.0580 N.1     1  UNL1       -0.1893
     23 N         141.4445  140.1474  161.1143 N.am    1  UNL1       -0.2791
     24 C         142.8774  139.8173  160.8178 C.2     1  UNL1        0.2672
     25 O         143.6195  138.8479  161.6892 O.2     1  UNL1       -0.2682
     26 H         140.9574  140.7836  160.5423 H       1  UNL1        0.1552
     27 C         143.5681  140.4565  159.6497 C.ar    1  UNL1        0.1348
     28 C         144.0530  141.8724  159.7483 C.ar    1  UNL1        0.0246
     29 C         144.7437  142.5117  158.5802 C.ar    1  UNL1        0.0147
     30 C         144.9494  141.7349  157.3136 C.ar    1  UNL1        0.0768
     31 CL        145.6402  142.3742  156.1456 Cl      1  UNL1       -0.0806
     32 C         144.4644  140.3189  157.2151 C.ar    1  UNL1        0.1103
     33 N         143.7738  139.6796  158.3831 N.ar    1  UNL1       -0.2384
@<TRIPOS>BOND
     1     9     8    1
     2     9     1    1
     3     1     2   ar
     4     2     3   ar
     5     3    23    1
     6    23    24   am
     7    24    25    2
     8    24    27    1
     9    27    28   ar
    10    28    29   ar
    11    29    30   ar
    12    30    31    1
    13    30    32   ar
    14    32    33   ar
    15     3     4   ar
    16     4     5   ar
    17     5     6   ar
    18     6     7    1
    19     9    10    1
    20    10    11    1
    21    11    12   ar
    22    12    21    1
    23    21    22    3
    24    12    13   ar
    25    13    14   ar
    26    14    15   ar
    27    15    16    1
    28    16    17    1
    29    16    18    2
    30    18     9    1
    31     6     1   ar
    32    15    11   ar
    33    33    27   ar
    34    23    26    1
    35    17    19    1
    36    17    20    1
@<TRIPOS>MOLECULE
*****
 33 36 0 0 0
SMALL
GASTEIGER

@<TRIPOS>ATOM
      1 C         139.3543  142.2398  164.4136 C.ar    1  UNL1        0.0522
      2 C         140.0334  141.4817  163.3118 C.ar    1  UNL1        0.0167
      3 C         139.5403  141.6070  161.9006 C.ar    1  UNL1        0.0505
      4 C         138.3682  142.4906  161.5914 C.ar    1  UNL1        0.0170
      5 C         137.6891  143.2487  162.6933 C.ar    1  UNL1        0.0307
      6 C         138.1822  143.1233  164.1044 C.ar    1  UNL1        0.1401
      7 F         137.5032  143.8814  165.2063 F       1  UNL1       -0.2044
      8 C         140.5425  143.3798  165.4174 C.3     1  UNL1        0.0601
      9 C         139.8473  142.1145  165.8248 C.3     1  UNL1        0.2163
     10 C         140.5818  142.4286  167.0944 C.3     1  UNL1        0.1614
     11 N         140.4499  141.5210  168.2813 N.ar    1  UNL1       -0.2929
     12 C         141.0484  141.5727  169.6558 C.ar    1  UNL1        0.1503
     13 C         140.5520  140.3829  170.4225 C.ar    1  UNL1        0.1285
     14 N         139.6466  139.5959  169.5220 N.ar    1  UNL1       -0.2180
     15 C         139.5835  140.2993  168.1986 C.ar    1  UNL1        0.2279
     16 C         138.8490  139.9852  166.9290 C.2     1  UNL1        0.3476
     17 N         137.9827  138.7635  166.8463 N.pl3   1  UNL1       -0.2439
     18 N         138.9810  140.8928  165.7421 N.2     1  UNL1       -0.0653
     19 H         137.8961  138.1678  167.6254 H       1  UNL1        0.2885
     20 H         137.5006  138.5574  166.0130 H       1  UNL1        0.2885
     21 C         141.9799  142.6287  170.1727 C.1     1  UNL1        0.1196
     22 N         142.9113  143.6848  170.6896 N.1     1  UNL1       -0.1893
     23 N         140.2194  140.8489  160.7988 N.am    1  UNL1       -0.2791
     24 C         139.6616  139.5350  160.3380 C.2     1  UNL1        0.2672
     25 O         138.4246  138.9791  160.9790 O.2     1  UNL1       -0.2682
     26 H         141.0313  141.2137  160.3781 H       1  UNL1        0.1552
     27 C         140.3407  138.7768  159.2361 C.ar    1  UNL1        0.1348
     28 C         141.8134  138.5024  159.3117 C.ar    1  UNL1        0.0246
     29 C         142.4925  137.7443  158.2099 C.ar    1  UNL1        0.0147
     30 C         141.6989  137.2606  157.0325 C.ar    1  UNL1        0.0768
     31 CL        142.3781  136.5025  155.9306 Cl      1  UNL1       -0.0806
     32 C         140.2262  137.5351  156.9569 C.ar    1  UNL1        0.1103
     33 N         139.5470  138.2932  158.0587 N.ar    1  UNL1       -0.2384
@<TRIPOS>BOND
     1     9     8    1
     2     9     1    1
     3     1     2   ar
     4     2     3   ar
     5     3    23    1
     6    23    24   am
     7    24    25    2
     8    24    27    1
     9    27    28   ar
    10    28    29   ar
    11    29    30   ar
    12    30    31    1
    13    30    32   ar
    14    32    33   ar
    15     3     4   ar
    16     4     5   ar
    17     5     6   ar
    18     6     7    1
    19     9    10    1
    20    10    11    1
    21    11    12   ar
    22    12    21    1
    23    21    22    3
    24    12    13   ar
    25    13    14   ar
    26    14    15   ar
    27    15    16    1
    28    16    17    1
    29    16    18    2
    30    18     9    1
    31     6     1   ar
    32    15    11   ar
    33    33    27   ar
    34    23    26    1
    35    17    19    1
    36    17    20    1
@<TRIPOS>MOLECULE
*****
 33 36 0 0 0
SMALL
GASTEIGER

@<TRIPOS>ATOM
      1 C         139.7686  139.7900  164.5649 C.ar    1  UNL1        0.0522
      2 C         140.0528  140.7046  163.4106 C.ar    1  UNL1        0.0167
      3 C         139.7254  140.2715  162.0122 C.ar    1  UNL1        0.0505
      4 C         139.1139  138.9237  161.7684 C.ar    1  UNL1        0.0170
      5 C         138.8297  138.0090  162.9228 C.ar    1  UNL1        0.0307
      6 C         139.1571  138.4423  164.3211 C.ar    1  UNL1        0.1401
      7 F         138.8729  137.5276  165.4755 F       1  UNL1       -0.2044
      8 C         138.8017  140.9540  165.7604 C.3     1  UNL1        0.0601
      9 C         140.0959  140.2231  165.9633 C.3     1  UNL1        0.2163
     10 C         139.9737  140.9101  167.2912 C.3     1  UNL1        0.1614
     11 N         141.0320  140.7158  168.3362 N.ar    1  UNL1       -0.2929
     12 C         141.1813  141.2587  169.7266 C.ar    1  UNL1        0.1503
     13 C         142.4540  140.7129  170.3031 C.ar    1  UNL1        0.1285
     14 N         143.0913  139.8328  169.2690 N.ar    1  UNL1       -0.2180
     15 C         142.2125  139.8346  168.0534 C.ar    1  UNL1        0.2279
     16 C         142.3346  139.1476  166.7256 C.2     1  UNL1        0.3476
     17 N         143.5151  138.2664  166.4428 N.pl3   1  UNL1       -0.2439
     18 N         141.2763  139.3419  165.6805 N.2     1  UNL1       -0.0653
     19 H         144.2097  138.1389  167.1288 H       1  UNL1        0.2885
     20 H         143.5952  137.8155  165.5713 H       1  UNL1        0.2885
     21 C         140.2256  142.1847  170.4188 C.1     1  UNL1        0.1196
     22 N         139.2699  143.1107  171.1111 N.1     1  UNL1       -0.1893
     23 N         140.0096  141.1861  160.8578 N.am    1  UNL1       -0.2791
     24 C         139.0458  142.2833  160.5152 C.2     1  UNL1        0.2672
     25 O         137.7978  142.4657  161.3270 O.2     1  UNL1       -0.2682
     26 H         140.8288  141.0664  160.3250 H       1  UNL1        0.1552
     27 C         139.3301  143.1979  159.3608 C.ar    1  UNL1        0.1348
     28 C         139.0288  142.7537  157.9602 C.ar    1  UNL1        0.0246
     29 C         139.3130  143.6684  156.8058 C.ar    1  UNL1        0.0147
     30 C         139.8986  145.0272  157.0521 C.ar    1  UNL1        0.0768
     31 CL        140.1828  145.9419  155.8977 Cl      1  UNL1       -0.0806
     32 C         140.1998  145.4714  158.4528 C.ar    1  UNL1        0.1103
     33 N         139.9156  144.5568  159.6072 N.ar    1  UNL1       -0.2384
@<TRIPOS>BOND
     1     9     8    1
     2     9     1    1
     3     1     2   ar
     4     2     3   ar
     5     3    23    1
     6    23    24   am
     7    24    25    2
     8    24    27    1
     9    27    28   ar
    10    28    29   ar
    11    29    30   ar
    12    30    31    1
    13    30    32   ar
    14    32    33   ar
    15     3     4   ar
    16     4     5   ar
    17     5     6   ar
    18     6     7    1
    19     9    10    1
    20    10    11    1
    21    11    12   ar
    22    12    21    1
    23    21    22    3
    24    12    13   ar
    25    13    14   ar
    26    14    15   ar
    27    15    16    1
    28    16    17    1
    29    16    18    2
    30    18     9    1
    31     6     1   ar
    32    15    11   ar
    33    33    27   ar
    34    23    26    1
    35    17    19    1
    36    17    20    1
@<TRIPOS>MOLECULE
*****
 33 36 0 0 0
SMALL
GASTEIGER

@<TRIPOS>ATOM
      1 C         142.5137  140.4389  164.6636 C.ar    1  UNL1        0.0522
      2 C         141.9782  141.2601  163.5284 C.ar    1  UNL1        0.0167
      3 C         142.5666  141.1167  162.1560 C.ar    1  UNL1        0.0505
      4 C         143.6905  140.1519  161.9190 C.ar    1  UNL1        0.0170
      5 C         144.2260  139.3306  163.0543 C.ar    1  UNL1        0.0307
      6 C         143.6375  139.4742  164.4266 C.ar    1  UNL1        0.1401
      7 F         144.1730  138.6529  165.5619 F       1  UNL1       -0.2044
      8 C         143.1916  141.3670  166.2121 C.3     1  UNL1        0.0601
      9 C         141.9253  140.5824  166.0359 C.3     1  UNL1        0.2163
     10 C         141.7768  140.9984  167.4695 C.3     1  UNL1        0.1614
     11 N         140.5662  140.5799  168.2502 N.ar    1  UNL1       -0.2929
     12 C         140.1481  140.8364  169.6677 C.ar    1  UNL1        0.1503
     13 C         138.8278  140.1606  169.8910 C.ar    1  UNL1        0.1285
     14 N         138.4299  139.4863  168.6115 N.ar    1  UNL1       -0.2180
     15 C         139.5043  139.7455  167.5974 C.ar    1  UNL1        0.2279
     16 C         139.6529  139.3296  166.1639 C.2     1  UNL1        0.3476
     17 N         138.5910  138.4952  165.5111 N.pl3   1  UNL1       -0.2439
     18 N         140.8634  139.7480  165.3832 N.2     1  UNL1       -0.0653
     19 H         137.7964  138.2206  166.0236 H       1  UNL1        0.2885
     20 H         138.6885  138.2222  164.5703 H       1  UNL1        0.2885
     21 C         140.9156  141.6295  170.6836 C.1     1  UNL1        0.1196
     22 N         141.6831  142.4226  171.6994 N.1     1  UNL1       -0.1893
     23 N         142.0311  141.9379  161.0208 N.am    1  UNL1       -0.2791
     24 C         142.5304  143.3359  160.8056 C.2     1  UNL1        0.2672
     25 O         143.5651  143.9127  161.7257 O.2     1  UNL1       -0.2682
     26 H         141.3520  141.5593  160.4169 H       1  UNL1        0.1552
     27 C         141.9948  144.1572  159.6703 C.ar    1  UNL1        0.1348
     28 C         140.6808  144.8663  159.8123 C.ar    1  UNL1        0.0246
     29 C         140.1452  145.6875  158.6770 C.ar    1  UNL1        0.0147
     30 C         140.9238  145.7996  157.3999 C.ar    1  UNL1        0.0768
     31 CL        140.3882  146.6208  156.2646 Cl      1  UNL1       -0.0806
     32 C         142.2379  145.0904  157.2579 C.ar    1  UNL1        0.1103
     33 N         142.7735  144.2692  158.3931 N.ar    1  UNL1       -0.2384
@<TRIPOS>BOND
     1     9     8    1
     2     9     1    1
     3     1     2   ar
     4     2     3   ar
     5     3    23    1
     6    23    24   am
     7    24    25    2
     8    24    27    1
     9    27    28   ar
    10    28    29   ar
    11    29    30   ar
    12    30    31    1
    13    30    32   ar
    14    32    33   ar
    15     3     4   ar
    16     4     5   ar
    17     5     6   ar
    18     6     7    1
    19     9    10    1
    20    10    11    1
    21    11    12   ar
    22    12    21    1
    23    21    22    3
    24    12    13   ar
    25    13    14   ar
    26    14    15   ar
    27    15    16    1
    28    16    17    1
    29    16    18    2
    30    18     9    1
    31     6     1   ar
    32    15    11   ar
    33    33    27   ar
    34    23    26    1
    35    17    19    1
    36    17    20    1
@<TRIPOS>MOLECULE
*****
 33 36 0 0 0
SMALL
GASTEIGER

@<TRIPOS>ATOM
      1 C         139.7278  142.4636  164.0972 C.ar    1  UNL1        0.0522
      2 C         140.6425  141.9643  163.0183 C.ar    1  UNL1        0.0167
      3 C         140.2651  142.1352  161.5766 C.ar    1  UNL1        0.0505
      4 C         138.9730  142.8052  161.2139 C.ar    1  UNL1        0.0170
      5 C         138.0583  143.3045  162.2929 C.ar    1  UNL1        0.0307
      6 C         138.4358  143.1336  163.7345 C.ar    1  UNL1        0.1401
      7 F         137.5211  143.6328  164.8135 F       1  UNL1       -0.2044
      8 C         140.8528  143.5539  165.2216 C.3     1  UNL1        0.0601
      9 C         140.1051  142.2927  165.5389 C.3     1  UNL1        0.2163
     10 C         140.7422  142.5600  166.8704 C.3     1  UNL1        0.1614
     11 N         140.5005  141.6254  168.0185 N.ar    1  UNL1       -0.2929
     12 C         140.9891  141.6303  169.4367 C.ar    1  UNL1        0.1503
     13 C         140.4124  140.4316  170.1298 C.ar    1  UNL1        0.1285
     14 N         139.5674  139.6858  169.1400 N.ar    1  UNL1       -0.2180
     15 C         139.6218  140.4236  167.8351 C.ar    1  UNL1        0.2279
     16 C         138.9848  140.1564  166.5036 C.2     1  UNL1        0.3476
     17 N         138.1061  138.9547  166.3203 N.pl3   1  UNL1       -0.2439
     18 N         139.2265  141.0910  165.3556 N.2     1  UNL1       -0.0653
     19 H         137.9475  138.3413  167.0738 H       1  UNL1        0.2885
     20 H         137.6880  138.7793  165.4464 H       1  UNL1        0.2885
     21 C         141.8954  142.6542  170.0535 C.1     1  UNL1        0.1196
     22 N         142.8016  143.6781  170.6702 N.1     1  UNL1       -0.1893
     23 N         141.1798  141.6359  160.4977 N.am    1  UNL1       -0.2791
     24 C         142.3134  142.4938  160.0190 C.2     1  UNL1        0.2672
     25 O         142.5322  143.8510  160.6191 O.2     1  UNL1       -0.2682
     26 H         141.0362  140.7452  160.1038 H       1  UNL1        0.1552
     27 C         143.2281  141.9945  158.9400 C.ar    1  UNL1        0.1348
     28 C         142.9200  140.7091  158.2310 C.ar    1  UNL1        0.0246
     29 C         143.8347  140.2099  157.1521 C.ar    1  UNL1        0.0147
     30 C         145.0575  140.9960  156.7823 C.ar    1  UNL1        0.0768
     31 CL        145.9722  140.4967  155.7034 Cl      1  UNL1       -0.0806
     32 C         145.3655  142.2814  157.4914 C.ar    1  UNL1        0.1103
     33 N         144.4509  142.7807  158.5702 N.ar    1  UNL1       -0.2384
@<TRIPOS>BOND
     1     9     8    1
     2     9     1    1
     3     1     2   ar
     4     2     3   ar
     5     3    23    1
     6    23    24   am
     7    24    25    2
     8    24    27    1
     9    27    28   ar
    10    28    29   ar
    11    29    30   ar
    12    30    31    1
    13    30    32   ar
    14    32    33   ar
    15     3     4   ar
    16     4     5   ar
    17     5     6   ar
    18     6     7    1
    19     9    10    1
    20    10    11    1
    21    11    12   ar
    22    12    21    1
    23    21    22    3
    24    12    13   ar
    25    13    14   ar
    26    14    15   ar
    27    15    16    1
    28    16    17    1
    29    16    18    2
    30    18     9    1
    31     6     1   ar
    32    15    11   ar
    33    33    27   ar
    34    23    26    1
    35    17    19    1
    36    17    20    1
@<TRIPOS>MOLECULE
*****
 33 36 0 0 0
SMALL
GASTEIGER

@<TRIPOS>ATOM
      1 C         143.3125  141.6247  164.3275 C.ar    1  UNL1        0.0522
      2 C         142.5655  140.9707  163.2031 C.ar    1  UNL1        0.0167
      3 C         143.1314  140.9924  161.8140 C.ar    1  UNL1        0.0505
      4 C         144.4441  141.6681  161.5495 C.ar    1  UNL1        0.0170
      5 C         145.1911  142.3222  162.6740 C.ar    1  UNL1        0.0307
      6 C         144.6252  142.3004  164.0630 C.ar    1  UNL1        0.1401
      7 F         145.3721  142.9544  165.1874 F       1  UNL1       -0.2044
      8 C         142.3189  142.9736  165.2825 C.3     1  UNL1        0.0601
      9 C         142.7467  141.6029  165.7166 C.3     1  UNL1        0.2163
     10 C         142.0323  142.0573  166.9549 C.3     1  UNL1        0.1614
     11 N         141.9422  141.1486  168.1448 N.ar    1  UNL1       -0.2929
     12 C         141.3075  141.3203  169.4930 C.ar    1  UNL1        0.1503
     13 C         141.5395  140.0633  170.2780 C.ar    1  UNL1        0.1285
     14 N         142.3176  139.1147  169.4149 N.ar    1  UNL1       -0.2180
     15 C         142.5664  139.7855  168.0965 C.ar    1  UNL1        0.2279
     16 C         143.2808  139.3312  166.8582 C.2     1  UNL1        0.3476
     17 N         143.9050  137.9681  166.8099 N.pl3   1  UNL1       -0.2439
     18 N         143.3709  140.2399  165.6683 N.2     1  UNL1       -0.0653
     19 H         143.8458  137.3716  167.5909 H       1  UNL1        0.2885
     20 H         144.3738  137.6699  165.9972 H       1  UNL1        0.2885
     21 C         140.5703  142.5356  169.9722 C.1     1  UNL1        0.1196
     22 N         139.8331  143.7509  170.4513 N.1     1  UNL1       -0.1893
     23 N         142.3844  140.3384  160.6897 N.am    1  UNL1       -0.2791
     24 C         142.9649  139.1388  160.0011 C.2     1  UNL1        0.2672
     25 O         144.2924  138.5932  160.4370 O.2     1  UNL1       -0.2682
     26 H         141.5131  140.6965  160.4036 H       1  UNL1        0.1552
     27 C         142.2179  138.4848  158.8767 C.ar    1  UNL1        0.1348
     28 C         140.7423  138.7081  158.7267 C.ar    1  UNL1        0.0246
     29 C         139.9952  138.0541  157.6023 C.ar    1  UNL1        0.0147
     30 C         140.7239  137.1768  156.6279 C.ar    1  UNL1        0.0768
     31 CL        139.9769  136.5228  155.5035 Cl      1  UNL1       -0.0806
     32 C         142.1996  136.9535  156.7780 C.ar    1  UNL1        0.1103
     33 N         142.9466  137.6075  157.9024 N.ar    1  UNL1       -0.2384
@<TRIPOS>BOND
     1     9     8    1
     2     9     1    1
     3     1     2   ar
     4     2     3   ar
     5     3    23    1
     6    23    24   am
     7    24    25    2
     8    24    27    1
     9    27    28   ar
    10    28    29   ar
    11    29    30   ar
    12    30    31    1
    13    30    32   ar
    14    32    33   ar
    15     3     4   ar
    16     4     5   ar
    17     5     6   ar
    18     6     7    1
    19     9    10    1
    20    10    11    1
    21    11    12   ar
    22    12    21    1
    23    21    22    3
    24    12    13   ar
    25    13    14   ar
    26    14    15   ar
    27    15    16    1
    28    16    17    1
    29    16    18    2
    30    18     9    1
    31     6     1   ar
    32    15    11   ar
    33    33    27   ar
    34    23    26    1
    35    17    19    1
    36    17    20    1
@<TRIPOS>MOLECULE
*****
 33 36 0 0 0
SMALL
GASTEIGER

@<TRIPOS>ATOM
      1 C         140.4482  143.6323  163.2817 C.ar    1  UNL1        0.0522
      2 C         141.4804  143.3576  162.2287 C.ar    1  UNL1        0.0167
      3 C         141.6699  144.3212  161.0947 C.ar    1  UNL1        0.0505
      4 C         140.8270  145.5594  161.0139 C.ar    1  UNL1        0.0170
      5 C         139.7947  145.8340  162.0670 C.ar    1  UNL1        0.0307
      6 C         139.6053  144.8704  163.2009 C.ar    1  UNL1        0.1401
      7 F         138.5730  145.1450  164.2540 F       1  UNL1       -0.2044
      8 C         141.4504  143.4297  164.9167 C.3     1  UNL1        0.0601
      9 C         140.2587  142.6687  164.4156 C.3     1  UNL1        0.2163
     10 C         140.4832  141.9695  165.7236 C.3     1  UNL1        0.1614
     11 N         139.5818  140.8440  166.1367 N.ar    1  UNL1       -0.2929
     12 C         139.5580  139.9738  167.3582 C.ar    1  UNL1        0.1503
     13 C         138.4174  139.0096  167.2183 C.ar    1  UNL1        0.1285
     14 N         137.7363  139.2840  165.9103 N.ar    1  UNL1       -0.2180
     15 C         138.4560  140.4177  165.2418 C.ar    1  UNL1        0.2279
     16 C         138.2315  141.1169  163.9339 C.2     1  UNL1        0.3476
     17 N         137.1057  140.6906  163.0390 N.pl3   1  UNL1       -0.2439
     18 N         139.1329  142.2424  163.5208 N.2     1  UNL1       -0.0653
     19 H         136.5141  139.9519  163.3101 H       1  UNL1        0.2885
     20 H         136.9584  141.1496  162.1805 H       1  UNL1        0.2885
     21 C         140.5079  140.0536  168.5163 C.1     1  UNL1        0.1196
     22 N         141.4579  140.1335  169.6744 N.1     1  UNL1       -0.1893
     23 N         142.7021  144.0466  160.0417 N.am    1  UNL1       -0.2791
     24 C         142.3567  143.1937  158.8570 C.2     1  UNL1        0.2672
     25 O         140.9789  142.6155  158.7254 O.2     1  UNL1       -0.2682
     26 H         143.6065  144.4260  160.1281 H       1  UNL1        0.1552
     27 C         143.3891  142.9191  157.8040 C.ar    1  UNL1        0.1348
     28 C         144.7635  142.4681  158.2008 C.ar    1  UNL1        0.0246
     29 C         145.7958  142.1935  157.1477 C.ar    1  UNL1        0.0147
     30 C         145.4537  142.3698  155.6980 C.ar    1  UNL1        0.0768
     31 CL        146.4861  142.0952  154.6449 Cl      1  UNL1       -0.0806
     32 C         144.0792  142.8209  155.3013 C.ar    1  UNL1        0.1103
     33 N         143.0469  143.0955  156.3542 N.ar    1  UNL1       -0.2384
@<TRIPOS>BOND
     1     9     8    1
     2     9     1    1
     3     1     2   ar
     4     2     3   ar
     5     3    23    1
     6    23    24   am
     7    24    25    2
     8    24    27    1
     9    27    28   ar
    10    28    29   ar
    11    29    30   ar
    12    30    31    1
    13    30    32   ar
    14    32    33   ar
    15     3     4   ar
    16     4     5   ar
    17     5     6   ar
    18     6     7    1
    19     9    10    1
    20    10    11    1
    21    11    12   ar
    22    12    21    1
    23    21    22    3
    24    12    13   ar
    25    13    14   ar
    26    14    15   ar
    27    15    16    1
    28    16    17    1
    29    16    18    2
    30    18     9    1
    31     6     1   ar
    32    15    11   ar
    33    33    27   ar
    34    23    26    1
    35    17    19    1
    36    17    20    1
@<TRIPOS>MOLECULE
*****
 33 36 0 0 0
SMALL
GASTEIGER

@<TRIPOS>ATOM
      1 C         140.6390  139.3867  164.1854 C.ar    1  UNL1        0.0522
      2 C         139.9360  140.1843  163.1273 C.ar    1  UNL1        0.0167
      3 C         139.7652  139.6164  161.7494 C.ar    1  UNL1        0.0505
      4 C         140.2976  138.2509  161.4298 C.ar    1  UNL1        0.0170
      5 C         141.0006  137.4533  162.4880 C.ar    1  UNL1        0.0307
      6 C         141.1712  138.0213  163.8658 C.ar    1  UNL1        0.1401
      7 F         141.8743  137.2238  164.9240 F       1  UNL1       -0.2044
      8 C         142.0353  140.5089  164.8993 C.3     1  UNL1        0.0601
      9 C         140.8097  139.9546  165.5632 C.3     1  UNL1        0.2163
     10 C         141.4062  140.7151  166.7105 C.3     1  UNL1        0.1614
     11 N         140.7177  140.7239  168.0431 N.ar    1  UNL1       -0.2929
     12 C         141.0642  141.3786  169.3475 C.ar    1  UNL1        0.1503
     13 C         139.9935  141.0316  170.3390 C.ar    1  UNL1        0.1285
     14 N         138.9852  140.1626  169.6475 N.ar    1  UNL1       -0.2180
     15 C         139.4328  139.9724  168.2285 C.ar    1  UNL1        0.2279
     16 C         138.8364  139.2120  167.0813 C.2     1  UNL1        0.3476
     17 N         137.5516  138.4605  167.2667 N.pl3   1  UNL1       -0.2439
     18 N         139.5249  139.2032  165.7487 N.2     1  UNL1       -0.0653
     19 H         137.0997  138.4663  168.1413 H       1  UNL1        0.2885
     20 H         137.1602  137.9614  166.5137 H       1  UNL1        0.2885
     21 C         142.2698  142.2305  169.6136 C.1     1  UNL1        0.1196
     22 N         143.4753  143.0825  169.8796 N.1     1  UNL1       -0.1893
     23 N         139.0623  140.4140  160.6913 N.am    1  UNL1       -0.2791
     24 C         139.8115  140.8714  159.4750 C.2     1  UNL1        0.2672
     25 O         141.2638  140.5312  159.3168 O.2     1  UNL1       -0.2682
     26 H         138.1090  140.6373  160.7952 H       1  UNL1        0.1552
     27 C         139.1084  141.6690  158.4169 C.ar    1  UNL1        0.1348
     28 C         139.6949  142.9649  157.9409 C.ar    1  UNL1        0.0246
     29 C         138.9918  143.7625  156.8828 C.ar    1  UNL1        0.0147
     30 C         137.7023  143.2642  156.3008 C.ar    1  UNL1        0.0768
     31 CL        136.9992  144.0618  155.2427 Cl      1  UNL1       -0.0806
     32 C         137.1159  141.9682  156.7768 C.ar    1  UNL1        0.1103
     33 N         137.8189  141.1706  157.8349 N.ar    1  UNL1       -0.2384
@<TRIPOS>BOND
     1     9     8    1
     2     9     1    1
     3     1     2   ar
     4     2     3   ar
     5     3    23    1
     6    23    24   am
     7    24    25    2
     8    24    27    1
     9    27    28   ar
    10    28    29   ar
    11    29    30   ar
    12    30    31    1
    13    30    32   ar
    14    32    33   ar
    15     3     4   ar
    16     4     5   ar
    17     5     6   ar
    18     6     7    1
    19     9    10    1
    20    10    11    1
    21    11    12   ar
    22    12    21    1
    23    21    22    3
    24    12    13   ar
    25    13    14   ar
    26    14    15   ar
    27    15    16    1
    28    16    17    1
    29    16    18    2
    30    18     9    1
    31     6     1   ar
    32    15    11   ar
    33    33    27   ar
    34    23    26    1
    35    17    19    1
    36    17    20    1
@<TRIPOS>MOLECULE
*****
 33 36 0 0 0
SMALL
GASTEIGER

@<TRIPOS>ATOM
      1 C         143.1839  141.2836  163.9564 C.ar    1  UNL1        0.0522
      2 C         142.5514  140.5795  162.7927 C.ar    1  UNL1        0.0167
      3 C         142.8934  140.9906  161.3912 C.ar    1  UNL1        0.0505
      4 C         143.8679  142.1058  161.1535 C.ar    1  UNL1        0.0170
      5 C         144.5004  142.8100  162.3173 C.ar    1  UNL1        0.0307
      6 C         144.1584  142.3988  163.7187 C.ar    1  UNL1        0.1401
      7 F         144.7909  143.1029  164.8824 F       1  UNL1       -0.2044
      8 C         143.9463  139.9009  165.0635 C.3     1  UNL1        0.0601
      9 C         142.8419  140.8724  165.3579 C.3     1  UNL1        0.2163
     10 C         142.8835  140.1238  166.6571 C.3     1  UNL1        0.1614
     11 N         141.9395  140.4896  167.7639 N.ar    1  UNL1       -0.2929
     12 C         141.7486  139.9351  169.1445 C.ar    1  UNL1        0.1503
     13 C         140.6450  140.7067  169.8054 C.ar    1  UNL1        0.1285
     14 N         140.1539  141.7381  168.8332 N.ar    1  UNL1       -0.2180
     15 C         140.9540  141.6039  167.5715 C.ar    1  UNL1        0.2279
     16 C         140.9124  142.3525  166.2723 C.2     1  UNL1        0.3476
     17 N         139.9268  143.4668  166.0799 N.pl3   1  UNL1       -0.2439
     18 N         141.8564  141.9867  165.1655 N.2     1  UNL1       -0.0653
     19 H         139.3073  143.7069  166.8064 H       1  UNL1        0.2885
     20 H         139.8996  143.9581  165.2272 H       1  UNL1        0.2885
     21 C         142.5249  138.8070  169.7567 C.1     1  UNL1        0.1196
     22 N         143.3012  137.6790  170.3689 N.1     1  UNL1       -0.1893
     23 N         142.2608  140.2865  160.2276 N.am    1  UNL1       -0.2791
     24 C         142.8610  139.0156  159.7035 C.2     1  UNL1        0.2672
     25 O         144.0938  138.4489  160.3430 O.2     1  UNL1       -0.2682
     26 H         141.4517  140.6584  159.8079 H       1  UNL1        0.1552
     27 C         142.2284  138.3115  158.5398 C.ar    1  UNL1        0.1348
     28 C         140.7518  138.4295  158.3045 C.ar    1  UNL1        0.0246
     29 C         140.1192  137.7253  157.1408 C.ar    1  UNL1        0.0147
     30 C         140.9633  136.9033  156.2125 C.ar    1  UNL1        0.0768
     31 CL        140.3307  136.1992  155.0489 Cl      1  UNL1       -0.0806
     32 C         142.4400  136.7854  156.4480 C.ar    1  UNL1        0.1103
     33 N         143.0726  137.4895  157.6116 N.ar    1  UNL1       -0.2384
@<TRIPOS>BOND
     1     9     8    1
     2     9     1    1
     3     1     2   ar
     4     2     3   ar
     5     3    23    1
     6    23    24   am
     7    24    25    2
     8    24    27    1
     9    27    28   ar
    10    28    29   ar
    11    29    30   ar
    12    30    31    1
    13    30    32   ar
    14    32    33   ar
    15     3     4   ar
    16     4     5   ar
    17     5     6   ar
    18     6     7    1
    19     9    10    1
    20    10    11    1
    21    11    12   ar
    22    12    21    1
    23    21    22    3
    24    12    13   ar
    25    13    14   ar
    26    14    15   ar
    27    15    16    1
    28    16    17    1
    29    16    18    2
    30    18     9    1
    31     6     1   ar
    32    15    11   ar
    33    33    27   ar
    34    23    26    1
    35    17    19    1
    36    17    20    1
