@<TRIPOS>MOLECULE
*****
 32 36 0 0 0
SMALL
GASTEIGER

@<TRIPOS>ATOM
      1 C         141.6633  138.9690  162.8735 C.ar    1  UNL1        0.1298
      2 C         140.6411  139.8802  163.4857 C.ar    1  UNL1        0.1312
      3 N         140.6767  140.1656  164.9579 N.ar    1  UNL1       -0.2363
      4 C         141.7346  139.5399  165.8178 C.ar    1  UNL1        0.1363
      5 C         142.0191  139.6345  167.2874 C.ar    1  UNL1        0.1243
      6 N         143.2172  138.7819  167.5835 N.ar    1  UNL1       -0.1449
      7 N         143.6730  138.1603  166.2968 N.ar    1  UNL1       -0.1287
      8 C         142.7568  138.6287  165.2055 C.ar    1  UNL1        0.1822
      9 N         142.7211  138.3433  163.7333 N.ar    1  UNL1       -0.3234
     10 H         143.3920  137.7453  163.3314 H       1  UNL1        0.1687
     11 C         139.9551  138.0373  154.9220 C.3     1  UNL1        0.0335
     12 C         140.8039  137.9469  156.1554 C.3     1  UNL1        0.1294
     13 O         142.1990  137.4003  156.2275 O.3     1  UNL1       -0.3548
     14 C         142.6640  137.5029  157.6500 C.3     1  UNL1        0.1434
     15 C         141.5563  138.1128  158.4570 C.3     1  UNL1        0.0460
     16 C         142.7822  137.7822  159.2555 C.3     1  UNL1        0.0253
     17 C         142.8179  138.0676  160.7277 C.3     1  UNL1        0.0923
     18 N         141.6276  138.6836  161.4012 N.pl3   1  UNL1       -0.2935
     19 C         140.4017  139.0143  160.6027 C.3     1  UNL1        0.0923
     20 C         140.3660  138.7289  159.1305 C.3     1  UNL1        0.0253
     21 C         140.4067  138.3872  157.5332 C.3     1  UNL1        0.0807
     22 N         139.0911  138.9953  157.9195 N.3     1  UNL1       -0.3202
     23 H         139.0910  139.1988  158.9190 H       1  UNL1        0.1189
     24 H         138.3383  138.3410  157.7057 H       1  UNL1        0.1189
     25 C         141.2421  140.4404  168.2859 C.ar    1  UNL1        0.0324
     26 C         139.9442  139.9167  168.8254 C.ar    1  UNL1        0.0025
     27 C         139.1672  140.7226  169.8238 C.ar    1  UNL1        0.0010
     28 C         139.6882  142.0522  170.2827 C.ar    1  UNL1        0.0122
     29 C         140.9861  142.5760  169.7432 C.ar    1  UNL1        0.0682
     30 CL        141.5070  143.9056  170.2021 Cl      1  UNL1       -0.0814
     31 C         141.7630  141.7701  168.7448 C.ar    1  UNL1        0.0697
     32 CL        143.0610  142.2939  168.2053 Cl      1  UNL1       -0.0813
@<TRIPOS>BOND
     1    12    11    1
     2    12    13    1
     3    13    14    1
     4    14    15    1
     5    15    16    1
     6    16    17    1
     7    17    18    1
     8    18     1    1
     9     1     2   ar
    10     2     3   ar
    11     3     4   ar
    12     4     5   ar
    13     5    25    1
    14    25    26   ar
    15    26    27   ar
    16    27    28   ar
    17    28    29   ar
    18    29    30    1
    19    29    31   ar
    20    31    32    1
    21     5     6   ar
    22     6     7   ar
    23     7     8   ar
    24     8     9   ar
    25    18    19    1
    26    19    20    1
    27    15    21    1
    28    21    22    1
    29    21    12    1
    30    20    15    1
    31     9     1   ar
    32     8     4    1
    33    31    25   ar
    34     9    10    1
    35    22    23    1
    36    22    24    1
@<TRIPOS>MOLECULE
*****
 32 36 0 0 0
SMALL
GASTEIGER

@<TRIPOS>ATOM
      1 C         142.1512  143.9843  160.6415 C.ar    1  UNL1        0.1298
      2 C         141.8577  142.5462  160.9508 C.ar    1  UNL1        0.1312
      3 N         142.2674  141.9643  162.2712 N.ar    1  UNL1       -0.2363
      4 C         142.9707  142.8205  163.2823 C.ar    1  UNL1        0.1363
      5 C         143.4912  142.5268  164.6580 C.ar    1  UNL1        0.1243
      6 N         144.1064  143.7833  165.1990 N.ar    1  UNL1       -0.1449
      7 N         143.9661  144.8536  164.1575 N.ar    1  UNL1       -0.1287
      8 C         143.2643  144.2587  162.9730 C.ar    1  UNL1        0.1822
      9 N         142.8545  144.8405  161.6525 N.ar    1  UNL1       -0.3234
     10 H         143.0472  145.7844  161.4495 H       1  UNL1        0.1687
     11 C         141.2796  146.4392  152.8810 C.3     1  UNL1        0.0335
     12 C         140.8980  146.3235  154.3269 C.3     1  UNL1        0.1294
     13 O         139.6846  146.9274  154.9696 O.3     1  UNL1       -0.3548
     14 C         139.6994  146.5606  156.4241 C.3     1  UNL1        0.1434
     15 C         140.9219  145.7300  156.6802 C.3     1  UNL1        0.0460
     16 C         140.0760  145.9621  157.8970 C.3     1  UNL1        0.0253
     17 C         140.4858  145.3802  159.2174 C.3     1  UNL1        0.0923
     18 N         141.7415  144.5662  159.3210 N.pl3   1  UNL1       -0.2935
     19 C         142.5873  144.3342  158.1042 C.3     1  UNL1        0.0923
     20 C         142.1776  144.9160  156.7839 C.3     1  UNL1        0.0253
     21 C         141.6626  145.5834  155.3841 C.3     1  UNL1        0.0807
     22 N         142.9432  144.8293  155.1809 N.3     1  UNL1       -0.3202
     23 H         143.2429  144.4232  156.0673 H       1  UNL1        0.1189
     24 H         143.6623  145.4664  154.8384 H       1  UNL1        0.1189
     25 C         143.4106  141.2080  165.3683 C.ar    1  UNL1        0.0324
     26 C         144.0790  139.9991  164.7836 C.ar    1  UNL1        0.0025
     27 C         143.9984  138.6804  165.4939 C.ar    1  UNL1        0.0010
     28 C         143.2494  138.5706  166.7888 C.ar    1  UNL1        0.0122
     29 C         142.5810  139.7794  167.3735 C.ar    1  UNL1        0.0682
     30 CL        141.8320  139.6696  168.6684 Cl      1  UNL1       -0.0814
     31 C         142.6616  141.0982  166.6632 C.ar    1  UNL1        0.0697
     32 CL        141.9931  142.3070  167.2480 Cl      1  UNL1       -0.0813
@<TRIPOS>BOND
     1    12    11    1
     2    12    13    1
     3    13    14    1
     4    14    15    1
     5    15    16    1
     6    16    17    1
     7    17    18    1
     8    18     1    1
     9     1     2   ar
    10     2     3   ar
    11     3     4   ar
    12     4     5   ar
    13     5    25    1
    14    25    26   ar
    15    26    27   ar
    16    27    28   ar
    17    28    29   ar
    18    29    30    1
    19    29    31   ar
    20    31    32    1
    21     5     6   ar
    22     6     7   ar
    23     7     8   ar
    24     8     9   ar
    25    18    19    1
    26    19    20    1
    27    15    21    1
    28    21    22    1
    29    21    12    1
    30    20    15    1
    31     9     1   ar
    32     8     4    1
    33    31    25   ar
    34     9    10    1
    35    22    23    1
    36    22    24    1
@<TRIPOS>MOLECULE
*****
 32 36 0 0 0
SMALL
GASTEIGER

@<TRIPOS>ATOM
      1 C         142.5456  139.4993  163.0192 C.ar    1  UNL1        0.1298
      2 C         141.5214  140.4544  163.5566 C.ar    1  UNL1        0.1312
      3 N         141.3328  140.5966  165.0378 N.ar    1  UNL1       -0.2363
      4 C         142.1686  139.7839  165.9818 C.ar    1  UNL1        0.1363
      5 C         142.2075  139.7108  167.4794 C.ar    1  UNL1        0.1243
      6 N         143.2558  138.7107  167.8677 N.ar    1  UNL1       -0.1449
      7 N         143.8648  138.1656  166.6099 N.ar    1  UNL1       -0.1287
      8 C         143.1929  138.8289  165.4444 C.ar    1  UNL1        0.1822
      9 N         143.3814  138.6866  163.9630 N.ar    1  UNL1       -0.3234
     10 H         144.0536  138.0598  163.6103 H       1  UNL1        0.1687
     11 C         144.3608  140.1561  155.0640 C.3     1  UNL1        0.0335
     12 C         143.7721  139.5052  156.2804 C.3     1  UNL1        0.1294
     13 O         143.0300  138.2019  156.3111 O.3     1  UNL1       -0.3548
     14 C         142.6214  137.9345  157.7295 C.3     1  UNL1        0.1434
     15 C         143.1110  139.0725  158.5753 C.3     1  UNL1        0.0460
     16 C         142.3741  138.0150  159.3425 C.3     1  UNL1        0.0253
     17 C         142.1857  138.1573  160.8238 C.3     1  UNL1        0.0923
     18 N         142.7341  139.3571  161.5378 N.pl3   1  UNL1       -0.2935
     19 C         143.4710  140.4145  160.7706 C.3     1  UNL1        0.0923
     20 C         143.6595  140.2722  159.2893 C.3     1  UNL1        0.0253
     21 C         143.8222  140.0432  157.6797 C.3     1  UNL1        0.0807
     22 N         144.4697  141.3266  158.1082 N.3     1  UNL1       -0.3202
     23 H         144.3545  141.4460  159.1146 H       1  UNL1        0.1189
     24 H         144.0313  142.1079  157.6207 H       1  UNL1        0.1189
     25 C         141.3489  140.4995  168.4233 C.ar    1  UNL1        0.0324
     26 C         140.0577  139.9223  168.9231 C.ar    1  UNL1        0.0025
     27 C         139.1992  140.7110  169.8669 C.ar    1  UNL1        0.0010
     28 C         139.6317  142.0769  170.3109 C.ar    1  UNL1        0.0122
     29 C         140.9228  142.6541  169.8111 C.ar    1  UNL1        0.0682
     30 CL        141.3554  144.0200  170.2551 Cl      1  UNL1       -0.0814
     31 C         141.7814  141.8654  168.8673 C.ar    1  UNL1        0.0697
     32 CL        143.0726  142.4427  168.3675 Cl      1  UNL1       -0.0813
@<TRIPOS>BOND
     1    12    11    1
     2    12    13    1
     3    13    14    1
     4    14    15    1
     5    15    16    1
     6    16    17    1
     7    17    18    1
     8    18     1    1
     9     1     2   ar
    10     2     3   ar
    11     3     4   ar
    12     4     5   ar
    13     5    25    1
    14    25    26   ar
    15    26    27   ar
    16    27    28   ar
    17    28    29   ar
    18    29    30    1
    19    29    31   ar
    20    31    32    1
    21     5     6   ar
    22     6     7   ar
    23     7     8   ar
    24     8     9   ar
    25    18    19    1
    26    19    20    1
    27    15    21    1
    28    21    22    1
    29    21    12    1
    30    20    15    1
    31     9     1   ar
    32     8     4    1
    33    31    25   ar
    34     9    10    1
    35    22    23    1
    36    22    24    1
@<TRIPOS>MOLECULE
*****
 32 36 0 0 0
SMALL
GASTEIGER

@<TRIPOS>ATOM
      1 C         139.9501  142.6274  162.3918 C.ar    1  UNL1        0.1298
      2 C         138.7628  142.9991  161.5539 C.ar    1  UNL1        0.1312
      3 N         138.9623  143.6511  160.2179 N.ar    1  UNL1       -0.2363
      4 C         140.3491  143.9315  159.7197 C.ar    1  UNL1        0.1363
      5 C         140.8533  144.5584  158.4538 C.ar    1  UNL1        0.1243
      6 N         142.3522  144.5741  158.5093 N.ar    1  UNL1       -0.1449
      7 N         142.7743  143.9570  159.8096 N.ar    1  UNL1       -0.1287
      8 C         141.5364  143.5599  160.5577 C.ar    1  UNL1        0.1822
      9 N         141.3369  142.9078  161.8938 N.ar    1  UNL1       -0.3234
     10 H         142.1161  142.6639  162.4438 H       1  UNL1        0.1687
     11 C         139.8907  140.2275  170.2180 C.3     1  UNL1        0.0335
     12 C         139.5075  140.1675  168.7691 C.3     1  UNL1        0.1294
     13 O         138.5808  139.1679  168.1428 O.3     1  UNL1       -0.3548
     14 C         138.4843  139.4792  166.6785 C.3     1  UNL1        0.1434
     15 C         139.3513  140.6712  166.3999 C.3     1  UNL1        0.0460
     16 C         138.6486  140.1316  165.1896 C.3     1  UNL1        0.0253
     17 C         138.8482  140.7837  163.8536 C.3     1  UNL1        0.0923
     18 N         139.7505  141.9753  163.7279 N.pl3   1  UNL1       -0.2935
     19 C         140.4532  142.5149  164.9383 C.3     1  UNL1        0.0923
     20 C         140.2536  141.8628  166.2743 C.3     1  UNL1        0.0253
     21 C         139.9837  141.0965  167.6920 C.3     1  UNL1        0.0807
     22 N         140.9266  142.2487  167.8747 N.3     1  UNL1       -0.3202
     23 H         141.0785  142.7093  166.9774 H       1  UNL1        0.1189
     24 H         141.8168  141.9055  168.2356 H       1  UNL1        0.1189
     25 C         140.0071  145.0782  157.3295 C.ar    1  UNL1        0.0324
     26 C         139.8887  146.5560  157.1012 C.ar    1  UNL1        0.0025
     27 C         139.0425  147.0757  155.9770 C.ar    1  UNL1        0.0010
     28 C         138.3149  146.1177  155.0810 C.ar    1  UNL1        0.0122
     29 C         138.4334  144.6400  155.3093 C.ar    1  UNL1        0.0682
     30 CL        137.7057  143.6820  154.4134 Cl      1  UNL1       -0.0814
     31 C         139.2795  144.1202  156.4336 C.ar    1  UNL1        0.0697
     32 CL        139.3979  142.6423  156.6618 Cl      1  UNL1       -0.0813
@<TRIPOS>BOND
     1    12    11    1
     2    12    13    1
     3    13    14    1
     4    14    15    1
     5    15    16    1
     6    16    17    1
     7    17    18    1
     8    18     1    1
     9     1     2   ar
    10     2     3   ar
    11     3     4   ar
    12     4     5   ar
    13     5    25    1
    14    25    26   ar
    15    26    27   ar
    16    27    28   ar
    17    28    29   ar
    18    29    30    1
    19    29    31   ar
    20    31    32    1
    21     5     6   ar
    22     6     7   ar
    23     7     8   ar
    24     8     9   ar
    25    18    19    1
    26    19    20    1
    27    15    21    1
    28    21    22    1
    29    21    12    1
    30    20    15    1
    31     9     1   ar
    32     8     4    1
    33    31    25   ar
    34     9    10    1
    35    22    23    1
    36    22    24    1
@<TRIPOS>MOLECULE
*****
 32 36 0 0 0
SMALL
GASTEIGER

@<TRIPOS>ATOM
      1 C         139.4849  141.8170  162.0356 C.ar    1  UNL1        0.1298
      2 C         138.3961  142.6563  161.4357 C.ar    1  UNL1        0.1312
      3 N         138.5193  143.1474  160.0238 N.ar    1  UNL1       -0.2363
      4 C         139.7314  142.7991  159.2116 C.ar    1  UNL1        0.1363
      5 C         140.1281  143.1369  157.8051 C.ar    1  UNL1        0.1243
      6 N         141.4621  142.5063  157.5356 N.ar    1  UNL1       -0.1449
      7 N         141.8899  141.7788  158.7756 N.ar    1  UNL1       -0.1287
      8 C         140.8203  141.9598  159.8114 C.ar    1  UNL1        0.1822
      9 N         140.6970  141.4687  161.2235 N.ar    1  UNL1       -0.3234
     10 H         141.4117  140.9178  161.6172 H       1  UNL1        0.1687
     11 C         139.9198  140.3013  170.0683 C.3     1  UNL1        0.0335
     12 C         139.4284  140.0985  168.6657 C.3     1  UNL1        0.1294
     13 O         138.4226  139.0775  168.2229 O.3     1  UNL1       -0.3548
     14 C         138.2291  139.2291  166.7431 C.3     1  UNL1        0.1434
     15 C         139.1152  140.3437  166.2714 C.3     1  UNL1        0.0460
     16 C         138.3058  139.7051  165.1819 C.3     1  UNL1        0.0253
     17 C         138.4291  140.1962  163.7700 C.3     1  UNL1        0.0923
     18 N         139.3617  141.3259  163.4476 N.pl3   1  UNL1       -0.2935
     19 C         140.1710  141.9645  164.5371 C.3     1  UNL1        0.0923
     20 C         140.0478  141.4734  165.9490 C.3     1  UNL1        0.0253
     21 C         139.8564  140.8810  167.4598 C.3     1  UNL1        0.0807
     22 N         140.8509  142.0038  167.4446 N.3     1  UNL1       -0.3202
     23 H         140.9523  142.3554  166.4925 H       1  UNL1        0.1189
     24 H         141.7525  141.6639  167.7792 H       1  UNL1        0.1189
     25 C         139.3307  143.9607  156.8377 C.ar    1  UNL1        0.0324
     26 C         138.1556  143.3560  156.1283 C.ar    1  UNL1        0.0025
     27 C         137.3583  144.1798  155.1610 C.ar    1  UNL1        0.0010
     28 C         137.7362  145.6083  154.9031 C.ar    1  UNL1        0.0122
     29 C         138.9114  146.2130  155.6125 C.ar    1  UNL1        0.0682
     30 CL        139.2894  147.6415  155.3546 Cl      1  UNL1       -0.0814
     31 C         139.7087  145.3892  156.5798 C.ar    1  UNL1        0.0697
     32 CL        140.8839  145.9940  157.2892 Cl      1  UNL1       -0.0813
@<TRIPOS>BOND
     1    12    11    1
     2    12    13    1
     3    13    14    1
     4    14    15    1
     5    15    16    1
     6    16    17    1
     7    17    18    1
     8    18     1    1
     9     1     2   ar
    10     2     3   ar
    11     3     4   ar
    12     4     5   ar
    13     5    25    1
    14    25    26   ar
    15    26    27   ar
    16    27    28   ar
    17    28    29   ar
    18    29    30    1
    19    29    31   ar
    20    31    32    1
    21     5     6   ar
    22     6     7   ar
    23     7     8   ar
    24     8     9   ar
    25    18    19    1
    26    19    20    1
    27    15    21    1
    28    21    22    1
    29    21    12    1
    30    20    15    1
    31     9     1   ar
    32     8     4    1
    33    31    25   ar
    34     9    10    1
    35    22    23    1
    36    22    24    1
@<TRIPOS>MOLECULE
*****
 32 36 0 0 0
SMALL
GASTEIGER

@<TRIPOS>ATOM
      1 C         142.6612  141.6397  160.8989 C.ar    1  UNL1        0.1298
      2 C         142.7125  140.5641  161.9432 C.ar    1  UNL1        0.1312
      3 N         141.8909  140.6911  163.1917 N.ar    1  UNL1       -0.2363
      4 C         141.0179  141.8938  163.3960 C.ar    1  UNL1        0.1363
      5 C         140.1033  142.2914  164.5163 C.ar    1  UNL1        0.1243
      6 N         139.4867  143.6128  164.1645 N.ar    1  UNL1       -0.1449
      7 N         140.0203  144.0317  162.8267 N.ar    1  UNL1       -0.1287
      8 C         140.9666  142.9693  162.3517 C.ar    1  UNL1        0.1822
      9 N         141.7882  142.8423  161.1031 N.ar    1  UNL1       -0.3234
     10 H         141.7545  143.5482  160.4177 H       1  UNL1        0.1687
     11 C         147.9896  142.2053  154.7103 C.3     1  UNL1        0.0335
     12 C         146.8200  141.6353  155.4565 C.3     1  UNL1        0.1294
     13 O         145.9608  140.4905  155.0076 O.3     1  UNL1       -0.3548
     14 C         144.9138  140.2576  156.0563 C.3     1  UNL1        0.1434
     15 C         145.1260  141.2584  157.1534 C.3     1  UNL1        0.0460
     16 C         143.9711  140.3306  157.3889 C.3     1  UNL1        0.0253
     17 C         143.1495  140.4577  158.6374 C.3     1  UNL1        0.0923
     18 N         143.4828  141.5126  159.6504 N.pl3   1  UNL1       -0.2935
     19 C         144.6377  142.4404  159.4149 C.3     1  UNL1        0.0923
     20 C         145.4592  142.3133  158.1664 C.3     1  UNL1        0.0253
     21 C         146.3041  142.1098  156.7826 C.3     1  UNL1        0.0807
     22 N         146.8672  143.2377  157.5954 N.3     1  UNL1       -0.3202
     23 H         146.3237  143.3441  158.4519 H       1  UNL1        0.1189
     24 H         146.8226  144.1016  157.0549 H       1  UNL1        0.1189
     25 C         139.8498  141.5058  165.7687 C.ar    1  UNL1        0.0324
     26 C         140.5387  141.8867  167.0455 C.ar    1  UNL1        0.0025
     27 C         140.2851  141.1010  168.2979 C.ar    1  UNL1        0.0010
     28 C         139.3426  139.9343  168.2734 C.ar    1  UNL1        0.0122
     29 C         138.6536  139.5535  166.9966 C.ar    1  UNL1        0.0682
     30 CL        137.7111  138.3869  166.9722 Cl      1  UNL1       -0.0814
     31 C         138.9072  140.3392  165.7443 C.ar    1  UNL1        0.0697
     32 CL        138.2182  139.9582  164.4675 Cl      1  UNL1       -0.0813
@<TRIPOS>BOND
     1    12    11    1
     2    12    13    1
     3    13    14    1
     4    14    15    1
     5    15    16    1
     6    16    17    1
     7    17    18    1
     8    18     1    1
     9     1     2   ar
    10     2     3   ar
    11     3     4   ar
    12     4     5   ar
    13     5    25    1
    14    25    26   ar
    15    26    27   ar
    16    27    28   ar
    17    28    29   ar
    18    29    30    1
    19    29    31   ar
    20    31    32    1
    21     5     6   ar
    22     6     7   ar
    23     7     8   ar
    24     8     9   ar
    25    18    19    1
    26    19    20    1
    27    15    21    1
    28    21    22    1
    29    21    12    1
    30    20    15    1
    31     9     1   ar
    32     8     4    1
    33    31    25   ar
    34     9    10    1
    35    22    23    1
    36    22    24    1
@<TRIPOS>MOLECULE
*****
 32 36 0 0 0
SMALL
GASTEIGER

@<TRIPOS>ATOM
      1 C         140.4008  138.8140  162.0591 C.ar    1  UNL1        0.1298
      2 C         139.3683  138.4626  161.0293 C.ar    1  UNL1        0.1312
      3 N         139.7692  138.2875  159.5946 N.ar    1  UNL1       -0.2363
      4 C         141.2027  138.4638  159.1895 C.ar    1  UNL1        0.1363
      5 C         141.8909  138.3558  157.8611 C.ar    1  UNL1        0.1243
      6 N         143.3487  138.6405  158.0698 N.ar    1  UNL1       -0.1449
      7 N         143.5615  138.9244  159.5273 N.ar    1  UNL1       -0.1287
      8 C         142.2353  138.8152  160.2192 C.ar    1  UNL1        0.1822
      9 N         141.8343  138.9903  161.6541 N.ar    1  UNL1       -0.3234
     10 H         142.5119  139.2210  162.3299 H       1  UNL1        0.1687
     11 C         139.5025  140.7800  169.9546 C.3     1  UNL1        0.0335
     12 C         139.1536  140.0821  168.6736 C.3     1  UNL1        0.1294
     13 O         138.0079  139.1356  168.4690 O.3     1  UNL1       -0.3548
     14 C         138.0353  138.6766  167.0411 C.3     1  UNL1        0.1434
     15 C         139.1978  139.3393  166.3633 C.3     1  UNL1        0.0460
     16 C         138.4062  138.4322  165.4687 C.3     1  UNL1        0.0253
     17 C         138.8072  138.2571  164.0340 C.3     1  UNL1        0.0923
     18 N         139.9998  138.9892  163.4939 N.pl3   1  UNL1       -0.2935
     19 C         140.7914  139.8963  164.3885 C.3     1  UNL1        0.0923
     20 C         140.3904  140.0714  165.8232 C.3     1  UNL1        0.0253
     21 C         139.8889  140.2080  167.3723 C.3     1  UNL1        0.0807
     22 N         141.1023  141.0540  167.1236 N.3     1  UNL1       -0.3202
     23 H         141.3949  140.9514  166.1518 H       1  UNL1        0.1189
     24 H         141.8580  140.7541  167.7396 H       1  UNL1        0.1189
     25 C         141.2362  138.0218  156.5535 C.ar    1  UNL1        0.0324
     26 C         140.3572  139.0306  155.8754 C.ar    1  UNL1        0.0025
     27 C         139.7026  138.6965  154.5678 C.ar    1  UNL1        0.0010
     28 C         139.9269  137.3536  153.9383 C.ar    1  UNL1        0.0122
     29 C         140.8059  136.3448  154.6163 C.ar    1  UNL1        0.0682
     30 CL        141.0303  135.0020  153.9868 Cl      1  UNL1       -0.0814
     31 C         141.4605  136.6789  155.9239 C.ar    1  UNL1        0.0697
     32 CL        142.3395  135.6700  156.6019 Cl      1  UNL1       -0.0813
@<TRIPOS>BOND
     1    12    11    1
     2    12    13    1
     3    13    14    1
     4    14    15    1
     5    15    16    1
     6    16    17    1
     7    17    18    1
     8    18     1    1
     9     1     2   ar
    10     2     3   ar
    11     3     4   ar
    12     4     5   ar
    13     5    25    1
    14    25    26   ar
    15    26    27   ar
    16    27    28   ar
    17    28    29   ar
    18    29    30    1
    19    29    31   ar
    20    31    32    1
    21     5     6   ar
    22     6     7   ar
    23     7     8   ar
    24     8     9   ar
    25    18    19    1
    26    19    20    1
    27    15    21    1
    28    21    22    1
    29    21    12    1
    30    20    15    1
    31     9     1   ar
    32     8     4    1
    33    31    25   ar
    34     9    10    1
    35    22    23    1
    36    22    24    1
@<TRIPOS>MOLECULE
*****
 32 36 0 0 0
SMALL
GASTEIGER

@<TRIPOS>ATOM
      1 C         141.2157  138.9504  163.0957 C.ar    1  UNL1        0.1298
      2 C         140.3997  137.9866  162.2863 C.ar    1  UNL1        0.1312
      3 N         140.7534  137.7239  160.8525 N.ar    1  UNL1       -0.2363
      4 C         141.9233  138.4250  160.2280 C.ar    1  UNL1        0.1363
      5 C         142.5077  138.3678  158.8478 C.ar    1  UNL1        0.1243
      6 N         143.6849  139.2963  158.8041 N.ar    1  UNL1       -0.1449
      7 N         143.8281  139.9273  160.1574 N.ar    1  UNL1       -0.1287
      8 C         142.7394  139.3888  161.0374 C.ar    1  UNL1        0.1822
      9 N         142.3856  139.6515  162.4713 N.ar    1  UNL1       -0.3234
     10 H         142.9212  140.2841  163.0025 H       1  UNL1        0.1687
     11 C         140.8897  140.6749  171.0914 C.3     1  UNL1        0.0335
     12 C         140.3297  140.2897  169.7543 C.3     1  UNL1        0.1294
     13 O         138.8899  139.9960  169.4528 O.3     1  UNL1       -0.3548
     14 C         138.7815  139.6553  167.9960 C.3     1  UNL1        0.1434
     15 C         140.1543  139.7386  167.3971 C.3     1  UNL1        0.0460
     16 C         139.0843  139.3528  166.4191 C.3     1  UNL1        0.0253
     17 C         139.4382  139.0901  164.9854 C.3     1  UNL1        0.0923
     18 N         140.8619  139.2132  164.5295 N.pl3   1  UNL1       -0.2935
     19 C         141.9319  139.5989  165.5075 C.3     1  UNL1        0.0923
     20 C         141.5780  139.8616  166.9412 C.3     1  UNL1        0.0253
     21 C         141.1111  140.1307  168.4838 C.3     1  UNL1        0.0807
     22 N         142.5896  140.3289  168.3274 N.3     1  UNL1       -0.3202
     23 H         142.8553  140.1554  167.3580 H       1  UNL1        0.1189
     24 H         143.0861  139.6794  168.9374 H       1  UNL1        0.1189
     25 C         142.0034  137.5294  157.7108 C.ar    1  UNL1        0.0324
     26 C         142.8282  136.3860  157.1986 C.ar    1  UNL1        0.0025
     27 C         142.3239  135.5476  156.0616 C.ar    1  UNL1        0.0010
     28 C         140.9948  135.8526  155.4368 C.ar    1  UNL1        0.0122
     29 C         140.1700  136.9960  155.9490 C.ar    1  UNL1        0.0682
     30 CL        138.8408  137.3010  155.3242 Cl      1  UNL1       -0.0814
     31 C         140.6743  137.8344  157.0860 C.ar    1  UNL1        0.0697
     32 CL        139.8494  138.9778  157.5982 Cl      1  UNL1       -0.0813
@<TRIPOS>BOND
     1    12    11    1
     2    12    13    1
     3    13    14    1
     4    14    15    1
     5    15    16    1
     6    16    17    1
     7    17    18    1
     8    18     1    1
     9     1     2   ar
    10     2     3   ar
    11     3     4   ar
    12     4     5   ar
    13     5    25    1
    14    25    26   ar
    15    26    27   ar
    16    27    28   ar
    17    28    29   ar
    18    29    30    1
    19    29    31   ar
    20    31    32    1
    21     5     6   ar
    22     6     7   ar
    23     7     8   ar
    24     8     9   ar
    25    18    19    1
    26    19    20    1
    27    15    21    1
    28    21    22    1
    29    21    12    1
    30    20    15    1
    31     9     1   ar
    32     8     4    1
    33    31    25   ar
    34     9    10    1
    35    22    23    1
    36    22    24    1
@<TRIPOS>MOLECULE
*****
 32 36 0 0 0
SMALL
GASTEIGER

@<TRIPOS>ATOM
      1 C         141.7253  142.5887  163.0525 C.ar    1  UNL1        0.1298
      2 C         140.9818  143.1148  164.2443 C.ar    1  UNL1        0.1312
      3 N         141.1015  142.4214  165.5690 N.ar    1  UNL1       -0.2363
      4 C         141.9646  141.2018  165.7019 C.ar    1  UNL1        0.1363
      5 C         142.2746  140.3140  166.8704 C.ar    1  UNL1        0.1243
      6 N         143.2095  139.2391  166.4008 N.ar    1  UNL1       -0.1449
      7 N         143.4775  139.4627  164.9420 N.ar    1  UNL1       -0.1287
      8 C         142.7081  140.6757  164.5100 C.ar    1  UNL1        0.1822
      9 N         142.5884  141.3692  163.1853 N.ar    1  UNL1       -0.3234
     10 H         143.0763  141.0239  162.4030 H       1  UNL1        0.1687
     11 C         142.3765  145.4668  155.4168 C.3     1  UNL1        0.0335
     12 C         141.7755  145.3546  156.7864 C.3     1  UNL1        0.1294
     13 O         140.5881  146.1182  157.2935 O.3     1  UNL1       -0.3548
     14 C         140.3351  145.6946  158.7101 C.3     1  UNL1        0.1434
     15 C         141.3660  144.6692  159.0785 C.3     1  UNL1        0.0460
     16 C         140.3977  144.9837  160.1800 C.3     1  UNL1        0.0253
     17 C         140.5174  144.2902  161.5046 C.3     1  UNL1        0.0923
     18 N         141.6055  143.2822  161.7278 N.pl3   1  UNL1       -0.2935
     19 C         142.5739  142.9676  160.6263 C.3     1  UNL1        0.0923
     20 C         142.4542  143.6611  159.3017 C.3     1  UNL1        0.0253
     21 C         142.2563  144.4590  157.8896 C.3     1  UNL1        0.0807
     22 N         143.4225  143.5185  157.8167 N.3     1  UNL1       -0.3202
     23 H         143.5245  143.0338  158.7083 H       1  UNL1        0.1189
     24 H         144.2725  144.0457  157.6171 H       1  UNL1        0.1189
     25 C         141.7429  140.4730  168.2640 C.ar    1  UNL1        0.0324
     26 C         142.6625  140.8841  169.3754 C.ar    1  UNL1        0.0025
     27 C         142.1308  141.0431  170.7689 C.ar    1  UNL1        0.0010
     28 C         140.6793  140.7909  171.0511 C.ar    1  UNL1        0.0122
     29 C         139.7596  140.3797  169.9398 C.ar    1  UNL1        0.0682
     30 CL        138.3082  140.1275  170.2220 Cl      1  UNL1       -0.0814
     31 C         140.2914  140.2208  168.5462 C.ar    1  UNL1        0.0697
     32 CL        139.3716  139.8096  167.4349 Cl      1  UNL1       -0.0813
@<TRIPOS>BOND
     1    12    11    1
     2    12    13    1
     3    13    14    1
     4    14    15    1
     5    15    16    1
     6    16    17    1
     7    17    18    1
     8    18     1    1
     9     1     2   ar
    10     2     3   ar
    11     3     4   ar
    12     4     5   ar
    13     5    25    1
    14    25    26   ar
    15    26    27   ar
    16    27    28   ar
    17    28    29   ar
    18    29    30    1
    19    29    31   ar
    20    31    32    1
    21     5     6   ar
    22     6     7   ar
    23     7     8   ar
    24     8     9   ar
    25    18    19    1
    26    19    20    1
    27    15    21    1
    28    21    22    1
    29    21    12    1
    30    20    15    1
    31     9     1   ar
    32     8     4    1
    33    31    25   ar
    34     9    10    1
    35    22    23    1
    36    22    24    1
