@<TRIPOS>MOLECULE
*****
 42 47 0 0 0
SMALL
GASTEIGER

@<TRIPOS>ATOM
      1 C         143.8910  142.5874  158.0517 C.2     1  UNL1        0.4208
      2 O         144.4727  141.6766  159.0921 O.2     1  UNL1       -0.2227
      3 N         142.7613  143.5078  158.4077 N.ar    1  UNL1       -0.2467
      4 C         142.1129  143.6278  159.7550 C.ar    1  UNL1        0.0629
      5 C         141.0325  144.6639  159.6587 C.ar    1  UNL1       -0.0048
      6 C         141.0132  145.1842  158.2520 C.ar    1  UNL1        0.0135
      7 C         140.1607  146.2163  157.5752 C.ar    1  UNL1        0.0012
      8 C         140.3767  146.5338  156.1252 C.ar    1  UNL1        0.0001
      9 C         141.4452  145.8193  155.3520 C.ar    1  UNL1        0.0015
     10 C         142.2977  144.7872  156.0288 C.ar    1  UNL1        0.0177
     11 C         142.0817  144.4697  157.4788 C.ar    1  UNL1        0.0692
     12 C         140.2059  144.9997  160.8645 C.3     1  UNL1        0.0568
     13 C         140.4597  144.2994  162.1665 C.3     1  UNL1        0.1567
     14 C         140.7135  143.5992  163.4685 C.2     1  UNL1        0.2441
     15 O         139.8869  143.9350  164.6743 O.2     1  UNL1       -0.2731
     16 N         141.7939  142.5631  163.5648 N.am    1  UNL1       -0.2778
     17 C         142.2710  141.7134  164.7052 C.3     1  UNL1        0.0938
     18 C         143.3925  140.8525  164.2041 C.3     1  UNL1        0.0271
     19 C         143.6085  141.1701  162.7541 C.3     1  UNL1        0.0240
     20 C         142.6205  142.2273  162.3590 C.3     1  UNL1        0.0992
     21 C         142.3667  142.9275  161.0570 C.3     1  UNL1        0.1321
     22 N         141.5401  143.2634  162.2628 N.am    1  UNL1       -0.2674
     23 C         141.7939  142.5631  163.5648 C.2     1  UNL1        0.2262
     24 O         142.8742  141.5271  163.6610 O.2     1  UNL1       -0.2749
     25 O         144.4392  142.5778  156.6556 O.3     1  UNL1       -0.4397
     26 C         146.3787  141.8190  156.2523 C.3     1  UNL1        0.0437
     27 C         144.9805  141.3068  156.0711 C.3     1  UNL1        0.1380
     28 C         143.5823  140.7947  155.8899 C.3     1  UNL1        0.0437
     29 C         145.5218  140.0359  155.4865 C.3     1  UNL1        0.0437
     30 C         144.1628  139.8501  165.0114 C.3     1  UNL1        0.0435
     31 C         143.4482  138.7035  165.6630 C.2     1  UNL1        0.0504
     32 O         144.1089  137.9415  166.7733 O.co2   1  UNL1       -0.5492
     33 O         142.0727  138.3188  165.2043 O.co2   1  UNL1       -0.5492
     34 C         140.9673  142.8989  164.7705 C.3     1  UNL1        0.0853
     35 C         140.1632  141.8303  165.4500 C.3     1  UNL1        0.0094
     36 C         140.4000  141.5202  166.8983 C.3     1  UNL1        0.0061
     37 C         139.5960  140.4516  167.5777 C.3     1  UNL1        0.0666
     38 C         138.5551  139.6931  166.8087 C.3     1  UNL1        0.2639
     39 F         137.4650  138.7082  166.5063 F       1  UNL1       -0.2043
     40 F         138.4133  139.0409  168.1521 F       1  UNL1       -0.2043
     41 C         138.3183  140.0033  165.3604 C.3     1  UNL1        0.0666
     42 C         139.1223  141.0718  164.6810 C.3     1  UNL1        0.0061
@<TRIPOS>UNITY_ATOM_ATTR
32 1
charge -1
@<TRIPOS>BOND
     1    26    27    1
     2    27    28    1
     3    27    29    1
     4    27    25    1
     5    25     1    1
     6     1     2    2
     7     1     3   am
     8     3     4   ar
     9     4     5   ar
    10     5     6   ar
    11     6     7   ar
    12     7     8   ar
    13     8     9   ar
    14     9    10   ar
    15    10    11   ar
    16     5    12    1
    17    13    12    1
    18    13    14    1
    19    14    15    2
    20    14    16   am
    21    16    17    1
    22    17    18    1
    23    18    30    1
    24    30    31    1
    25    31    32   ar
    26    31    33   ar
    27    18    19    1
    28    20    19    1
    29    20    21    1
    30    21    22    1
    31    22    23   am
    32    23    24    2
    33    23    34    1
    34    34    35    1
    35    35    36    1
    36    36    37    1
    37    37    38    1
    38    38    39    1
    39    38    40    1
    40    38    41    1
    41    41    42    1
    42    11     3   ar
    43    22    13    1
    44    42    35    1
    45    21     4    1
    46    11     6   ar
    47    20    16    1
@<TRIPOS>MOLECULE
*****
 42 47 0 0 0
SMALL
GASTEIGER

@<TRIPOS>ATOM
      1 C         139.2606  142.5340  157.6102 C.2     1  UNL1        0.4208
      2 O         138.8601  143.4629  158.7179 O.2     1  UNL1       -0.2227
      3 N         139.4472  141.0718  157.8882 N.ar    1  UNL1       -0.2467
      4 C         139.2700  140.3971  159.2161 C.ar    1  UNL1        0.0629
      5 C         139.5570  138.9360  159.0355 C.ar    1  UNL1       -0.0048
      6 C         139.9117  138.7076  157.5961 C.ar    1  UNL1        0.0135
      7 C         140.2877  137.4683  156.8394 C.ar    1  UNL1        0.0012
      8 C         140.5958  137.5489  155.3737 C.ar    1  UNL1        0.0001
      9 C         140.5279  138.8690  154.6645 C.ar    1  UNL1        0.0015
     10 C         140.1520  140.1084  155.4212 C.ar    1  UNL1        0.0177
     11 C         139.8438  140.0277  156.8869 C.ar    1  UNL1        0.0692
     12 C         139.4584  138.0022  160.2052 C.3     1  UNL1        0.0568
     13 C         139.0727  138.5295  161.5555 C.3     1  UNL1        0.1567
     14 C         138.6869  139.0569  162.9057 C.2     1  UNL1        0.2441
     15 O         138.5883  138.1231  164.0755 O.2     1  UNL1       -0.2731
     16 N         138.3999  140.5180  163.0863 N.am    1  UNL1       -0.2778
     17 C         137.9999  141.3213  164.2883 C.3     1  UNL1        0.0938
     18 C         137.8514  142.7516  163.8614 C.3     1  UNL1        0.0271
     19 C         138.1595  142.8323  162.3956 C.3     1  UNL1        0.0240
     20 C         138.4985  141.4518  161.9166 C.3     1  UNL1        0.0992
     21 C         138.8842  140.9245  160.5663 C.3     1  UNL1        0.1321
     22 N         138.7856  139.9907  161.7360 N.am    1  UNL1       -0.2674
     23 C         138.3999  140.5180  163.0863 C.2     1  UNL1        0.2262
     24 O         138.1128  141.9791  163.2667 O.2     1  UNL1       -0.2749
     25 O         139.4744  143.0674  156.2247 O.3     1  UNL1       -0.4397
     26 C         139.3748  145.1085  155.6554 C.3     1  UNL1        0.0437
     27 C         138.4346  143.9416  155.5888 C.3     1  UNL1        0.1380
     28 C         137.4943  142.7747  155.5221 C.3     1  UNL1        0.0437
     29 C         137.3947  144.8158  154.9528 C.3     1  UNL1        0.0437
     30 C         137.4630  143.8996  164.7451 C.3     1  UNL1        0.0435
     31 C         138.5215  144.7842  165.3343 C.2     1  UNL1        0.0504
     32 O         138.1890  145.6880  166.4843 O.co2   1  UNL1       -0.5492
     33 O         139.9127  144.7649  164.7734 O.co2   1  UNL1       -0.5492
     34 C         138.3012  139.5842  164.2560 C.3     1  UNL1        0.0853
     35 C         139.2561  139.7179  165.4050 C.3     1  UNL1        0.0094
     36 C         138.7365  139.7542  166.8116 C.3     1  UNL1        0.0061
     37 C         139.6914  139.8879  167.9607 C.3     1  UNL1        0.0666
     38 C         141.1659  139.9853  167.7030 C.3     1  UNL1        0.2639
     39 F         142.6375  140.1104  167.9656 F       1  UNL1       -0.2043
     40 F         141.1574  140.0650  169.2009 F       1  UNL1       -0.2043
     41 C         141.6855  139.9490  166.2964 C.3     1  UNL1        0.0666
     42 C         140.7306  139.8153  165.1474 C.3     1  UNL1        0.0061
@<TRIPOS>UNITY_ATOM_ATTR
32 1
charge -1
@<TRIPOS>BOND
     1    26    27    1
     2    27    28    1
     3    27    29    1
     4    27    25    1
     5    25     1    1
     6     1     2    2
     7     1     3   am
     8     3     4   ar
     9     4     5   ar
    10     5     6   ar
    11     6     7   ar
    12     7     8   ar
    13     8     9   ar
    14     9    10   ar
    15    10    11   ar
    16     5    12    1
    17    13    12    1
    18    13    14    1
    19    14    15    2
    20    14    16   am
    21    16    17    1
    22    17    18    1
    23    18    30    1
    24    30    31    1
    25    31    32   ar
    26    31    33   ar
    27    18    19    1
    28    20    19    1
    29    20    21    1
    30    21    22    1
    31    22    23   am
    32    23    24    2
    33    23    34    1
    34    34    35    1
    35    35    36    1
    36    36    37    1
    37    37    38    1
    38    38    39    1
    39    38    40    1
    40    38    41    1
    41    41    42    1
    42    11     3   ar
    43    22    13    1
    44    42    35    1
    45    21     4    1
    46    11     6   ar
    47    20    16    1
@<TRIPOS>MOLECULE
*****
 42 47 0 0 0
SMALL
GASTEIGER

@<TRIPOS>ATOM
      1 C         143.8893  142.2292  159.3348 C.2     1  UNL1        0.4208
      2 O         144.3046  141.1525  160.2931 O.2     1  UNL1       -0.2227
      3 N         142.6028  142.9698  159.5505 N.ar    1  UNL1       -0.2467
      4 C         141.6337  142.7452  160.6732 C.ar    1  UNL1        0.0629
      5 C         140.4916  143.7016  160.4978 C.ar    1  UNL1       -0.0048
      6 C         140.7547  144.5173  159.2668 C.ar    1  UNL1        0.0135
      7 C         139.9748  145.6134  158.6034 C.ar    1  UNL1        0.0012
      8 C         140.4998  146.2572  157.3544 C.ar    1  UNL1        0.0001
      9 C         141.8046  145.8049  156.7689 C.ar    1  UNL1        0.0015
     10 C         142.5845  144.7088  157.4324 C.ar    1  UNL1        0.0177
     11 C         142.0596  144.0650  158.6813 C.ar    1  UNL1        0.0692
     12 C         139.3594  143.7062  161.4818 C.3     1  UNL1        0.0568
     13 C         139.3694  142.7544  162.6411 C.3     1  UNL1        0.1567
     14 C         139.3794  141.8026  163.8004 C.2     1  UNL1        0.2441
     15 O         138.2473  141.8072  164.7844 O.2     1  UNL1       -0.2731
     16 N         140.5216  140.8462  163.9758 N.am    1  UNL1       -0.2778
     17 C         140.8044  139.7998  165.0127 C.3     1  UNL1        0.0938
     18 C         142.1113  139.1486  164.6695 C.3     1  UNL1        0.0271
     19 C         142.6362  139.7924  163.4205 C.3     1  UNL1        0.0240
     20 C         141.6537  140.8416  162.9918 C.3     1  UNL1        0.0992
     21 C         141.6437  141.7934  161.8325 C.3     1  UNL1        0.1321
     22 N         140.5116  141.7980  162.8164 N.am    1  UNL1       -0.2674
     23 C         140.5216  140.8462  163.9758 C.2     1  UNL1        0.2262
     24 O         141.6637  139.8898  164.1510 O.2     1  UNL1       -0.2749
     25 O         144.7604  142.5652  158.1610 O.3     1  UNL1       -0.4397
     26 C         146.3644  142.1323  156.8419 C.3     1  UNL1        0.0437
     27 C         145.0092  141.5408  157.0939 C.3     1  UNL1        0.1380
     28 C         143.6539  140.9493  157.3458 C.3     1  UNL1        0.0437
     29 C         145.2579  140.5163  156.0268 C.3     1  UNL1        0.0437
     30 C         142.7765  138.0469  165.4400 C.3     1  UNL1        0.0435
     31 C         143.4088  138.3369  166.7690 C.2     1  UNL1        0.0504
     32 O         144.4748  137.4289  167.3065 O.co2   1  UNL1       -0.5492
     33 O         142.9750  139.5352  167.5603 O.co2   1  UNL1       -0.5492
     34 C         139.3894  140.8508  164.9597 C.3     1  UNL1        0.0853
     35 C         139.6641  141.0699  166.4180 C.3     1  UNL1        0.0094
     36 C         139.2460  140.0381  167.4232 C.3     1  UNL1        0.0061
     37 C         139.5206  140.2573  168.8815 C.3     1  UNL1        0.0666
     38 C         140.2133  141.5082  169.3345 C.3     1  UNL1        0.2639
     39 F         140.8358  142.5233  170.2467 F       1  UNL1       -0.2043
     40 F         140.0115  140.8289  170.6566 F       1  UNL1       -0.2043
     41 C         140.6313  142.5401  168.3292 C.3     1  UNL1        0.0666
     42 C         140.3567  142.3209  166.8710 C.3     1  UNL1        0.0061
@<TRIPOS>UNITY_ATOM_ATTR
32 1
charge -1
@<TRIPOS>BOND
     1    26    27    1
     2    27    28    1
     3    27    29    1
     4    27    25    1
     5    25     1    1
     6     1     2    2
     7     1     3   am
     8     3     4   ar
     9     4     5   ar
    10     5     6   ar
    11     6     7   ar
    12     7     8   ar
    13     8     9   ar
    14     9    10   ar
    15    10    11   ar
    16     5    12    1
    17    13    12    1
    18    13    14    1
    19    14    15    2
    20    14    16   am
    21    16    17    1
    22    17    18    1
    23    18    30    1
    24    30    31    1
    25    31    32   ar
    26    31    33   ar
    27    18    19    1
    28    20    19    1
    29    20    21    1
    30    21    22    1
    31    22    23   am
    32    23    24    2
    33    23    34    1
    34    34    35    1
    35    35    36    1
    36    36    37    1
    37    37    38    1
    38    38    39    1
    39    38    40    1
    40    38    41    1
    41    41    42    1
    42    11     3   ar
    43    22    13    1
    44    42    35    1
    45    21     4    1
    46    11     6   ar
    47    20    16    1
@<TRIPOS>MOLECULE
*****
 42 47 0 0 0
SMALL
GASTEIGER

@<TRIPOS>ATOM
      1 C         138.7357  140.4320  158.3251 C.2     1  UNL1        0.4208
      2 O         138.3296  141.5380  159.2536 O.2     1  UNL1       -0.2227
      3 N         140.0171  139.6884  158.5596 N.ar    1  UNL1       -0.2467
      4 C         140.9896  139.9371  159.6742 C.ar    1  UNL1        0.0629
      5 C         142.1245  138.9679  159.5240 C.ar    1  UNL1       -0.0048
      6 C         141.8535  138.1202  158.3166 C.ar    1  UNL1        0.0135
      7 C         142.6245  137.0004  157.6829 C.ar    1  UNL1        0.0012
      8 C         142.0929  136.3259  156.4531 C.ar    1  UNL1        0.0001
      9 C         140.7905  136.7711  155.8570 C.ar    1  UNL1        0.0015
     10 C         140.0195  137.8909  156.4907 C.ar    1  UNL1        0.0177
     11 C         140.5511  138.5655  157.7205 C.ar    1  UNL1        0.0692
     12 C         143.2581  138.9826  160.5062 C.3     1  UNL1        0.0568
     13 C         143.2568  139.9663  161.6385 C.3     1  UNL1        0.1567
     14 C         143.2555  140.9501  162.7709 C.2     1  UNL1        0.2441
     15 O         144.3891  140.9647  163.7530 O.2     1  UNL1       -0.2731
     16 N         142.1205  141.9193  162.9211 N.am    1  UNL1       -0.2778
     17 C         141.8469  142.9962  163.9288 C.3     1  UNL1        0.0938
     18 C         140.5442  143.6471  163.5694 C.3     1  UNL1        0.0271
     19 C         140.0126  142.9725  162.3396 C.3     1  UNL1        0.0240
     20 C         140.9869  141.9047  161.9389 C.3     1  UNL1        0.0992
     21 C         140.9882  140.9209  160.8066 C.3     1  UNL1        0.1321
     22 N         142.1219  140.9355  161.7887 N.am    1  UNL1       -0.2674
     23 C         142.1205  141.9193  162.9211 C.2     1  UNL1        0.2262
     24 O         140.9856  142.8884  163.0712 O.2     1  UNL1       -0.2749
     25 O         137.8603  140.0697  157.1623 O.3     1  UNL1       -0.4397
     26 C         138.8392  141.3818  155.8132 C.3     1  UNL1        0.0437
     27 C         137.4122  141.1309  156.2015 C.3     1  UNL1        0.1380
     28 C         135.9852  140.8800  156.5898 C.3     1  UNL1        0.0437
     29 C         136.9641  142.1921  155.2407 C.3     1  UNL1        0.0437
     30 C         139.8881  144.7746  164.3098 C.3     1  UNL1        0.0435
     31 C         138.6347  144.5270  165.0958 C.2     1  UNL1        0.0504
     32 O         138.2466  145.4617  166.2028 O.co2   1  UNL1       -0.5492
     33 O         137.7694  143.3445  164.7746 O.co2   1  UNL1       -0.5492
     34 C         143.2541  141.9339  163.9032 C.3     1  UNL1        0.0853
     35 C         143.0080  141.5727  165.3381 C.3     1  UNL1        0.0094
     36 C         142.4142  140.2396  165.6846 C.3     1  UNL1        0.0061
     37 C         142.1681  139.8783  167.1195 C.3     1  UNL1        0.0666
     38 C         142.5158  140.8502  168.2079 C.3     1  UNL1        0.2639
     39 F         142.6766  141.4289  169.5824 F       1  UNL1       -0.2043
     40 F         141.9778  139.7180  169.0318 F       1  UNL1       -0.2043
     41 C         143.1096  142.1833  167.8613 C.3     1  UNL1        0.0666
     42 C         143.3557  142.5446  166.4265 C.3     1  UNL1        0.0061
@<TRIPOS>UNITY_ATOM_ATTR
32 1
charge -1
@<TRIPOS>BOND
     1    26    27    1
     2    27    28    1
     3    27    29    1
     4    27    25    1
     5    25     1    1
     6     1     2    2
     7     1     3   am
     8     3     4   ar
     9     4     5   ar
    10     5     6   ar
    11     6     7   ar
    12     7     8   ar
    13     8     9   ar
    14     9    10   ar
    15    10    11   ar
    16     5    12    1
    17    13    12    1
    18    13    14    1
    19    14    15    2
    20    14    16   am
    21    16    17    1
    22    17    18    1
    23    18    30    1
    24    30    31    1
    25    31    32   ar
    26    31    33   ar
    27    18    19    1
    28    20    19    1
    29    20    21    1
    30    21    22    1
    31    22    23   am
    32    23    24    2
    33    23    34    1
    34    34    35    1
    35    35    36    1
    36    36    37    1
    37    37    38    1
    38    38    39    1
    39    38    40    1
    40    38    41    1
    41    41    42    1
    42    11     3   ar
    43    22    13    1
    44    42    35    1
    45    21     4    1
    46    11     6   ar
    47    20    16    1
@<TRIPOS>MOLECULE
*****
 42 47 0 0 0
SMALL
GASTEIGER

@<TRIPOS>ATOM
      1 C         142.6406  138.4998  158.8467 C.2     1  UNL1        0.4208
      2 O         141.6602  137.9716  159.8519 O.2     1  UNL1       -0.2227
      3 N         143.2094  139.8785  159.0067 N.ar    1  UNL1       -0.2467
      4 C         142.8936  140.8394  160.1144 C.ar    1  UNL1        0.0629
      5 C         143.6829  142.0931  159.8793 C.ar    1  UNL1       -0.0048
      6 C         144.4864  141.9070  158.6264 C.ar    1  UNL1        0.0135
      7 C         145.4468  142.8071  157.9069 C.ar    1  UNL1        0.0012
      8 C         146.1144  142.3383  156.6482 C.ar    1  UNL1        0.0001
      9 C         145.8217  140.9696  156.1089 C.ar    1  UNL1        0.0015
     10 C         144.8614  140.0695  156.8283 C.ar    1  UNL1        0.0177
     11 C         144.1937  140.5383  158.0871 C.ar    1  UNL1        0.0692
     12 C         143.5680  143.2423  160.8365 C.3     1  UNL1        0.0568
     13 C         142.6638  143.1377  162.0288 C.3     1  UNL1        0.1567
     14 C         141.7596  143.0331  163.2210 C.2     1  UNL1        0.2441
     15 O         141.6447  144.1822  164.1783 O.2     1  UNL1       -0.2731
     16 N         140.9703  141.7794  163.4561 N.am    1  UNL1       -0.2778
     17 C         140.0049  141.3887  164.5356 C.3     1  UNL1        0.0938
     18 C         139.5232  139.9981  164.2456 C.3     1  UNL1        0.0271
     19 C         140.1909  139.5294  162.9868 C.3     1  UNL1        0.0240
     20 C         141.0852  140.6303  162.4989 C.3     1  UNL1        0.0992
     21 C         141.9894  140.7349  161.3066 C.3     1  UNL1        0.1321
     22 N         141.8745  141.8840  162.2638 N.am    1  UNL1       -0.2674
     23 C         140.9703  141.7794  163.4561 C.2     1  UNL1        0.2262
     24 O         140.1811  140.5257  163.6911 O.2     1  UNL1       -0.2749
     25 O         143.0519  137.6492  157.6818 O.3     1  UNL1       -0.4397
     26 C         141.4086  138.4208  156.5844 C.3     1  UNL1        0.0437
     27 C         142.0097  137.0602  156.7781 C.3     1  UNL1        0.1380
     28 C         142.6107  135.6995  156.9717 C.3     1  UNL1        0.0437
     29 C         140.9674  136.4711  155.8743 C.3     1  UNL1        0.0437
     30 C         138.5455  139.2139  165.0696 C.3     1  UNL1        0.0435
     31 C         138.7548  139.0720  166.5482 C.2     1  UNL1        0.0504
     32 O         137.6785  138.4727  167.4039 O.co2   1  UNL1       -0.5492
     33 O         140.0406  139.5294  167.1709 O.co2   1  UNL1       -0.5492
     34 C         140.8554  142.9285  164.4133 C.3     1  UNL1        0.0853
     35 C         141.2431  142.7487  165.8511 C.3     1  UNL1        0.0094
     36 C         142.6322  142.3057  166.2035 C.3     1  UNL1        0.0061
     37 C         143.0199  142.1258  167.6413 C.3     1  UNL1        0.0666
     38 C         142.0186  142.3889  168.7267 C.3     1  UNL1        0.2639
     39 F         141.4286  142.5131  170.1002 F       1  UNL1       -0.2043
     40 F         143.2028  141.9890  169.5561 F       1  UNL1       -0.2043
     41 C         140.6296  142.8319  168.3743 C.3     1  UNL1        0.0666
     42 C         140.2418  143.0117  166.9365 C.3     1  UNL1        0.0061
@<TRIPOS>UNITY_ATOM_ATTR
32 1
charge -1
@<TRIPOS>BOND
     1    26    27    1
     2    27    28    1
     3    27    29    1
     4    27    25    1
     5    25     1    1
     6     1     2    2
     7     1     3   am
     8     3     4   ar
     9     4     5   ar
    10     5     6   ar
    11     6     7   ar
    12     7     8   ar
    13     8     9   ar
    14     9    10   ar
    15    10    11   ar
    16     5    12    1
    17    13    12    1
    18    13    14    1
    19    14    15    2
    20    14    16   am
    21    16    17    1
    22    17    18    1
    23    18    30    1
    24    30    31    1
    25    31    32   ar
    26    31    33   ar
    27    18    19    1
    28    20    19    1
    29    20    21    1
    30    21    22    1
    31    22    23   am
    32    23    24    2
    33    23    34    1
    34    34    35    1
    35    35    36    1
    36    36    37    1
    37    37    38    1
    38    38    39    1
    39    38    40    1
    40    38    41    1
    41    41    42    1
    42    11     3   ar
    43    22    13    1
    44    42    35    1
    45    21     4    1
    46    11     6   ar
    47    20    16    1
@<TRIPOS>MOLECULE
*****
 42 47 0 0 0
SMALL
GASTEIGER

@<TRIPOS>ATOM
      1 C         139.4494  139.6002  156.1299 C.2     1  UNL1        0.4208
      2 O         138.6356  140.5574  156.9494 O.2     1  UNL1       -0.2227
      3 N         140.5362  138.7943  156.7776 N.ar    1  UNL1       -0.2467
      4 C         140.9224  138.8384  158.2263 C.ar    1  UNL1        0.0629
      5 C         142.0524  137.8742  158.4343 C.ar    1  UNL1       -0.0048
      6 C         142.3646  137.2342  157.1141 C.ar    1  UNL1        0.0135
      7 C         143.3811  136.2071  156.7120 C.ar    1  UNL1        0.0012
      8 C         143.4605  135.7486  155.2861 C.ar    1  UNL1        0.0001
      9 C         142.5234  136.3173  154.2621 C.ar    1  UNL1        0.0015
     10 C         141.5069  137.3444  154.6642 C.ar    1  UNL1        0.0177
     11 C         141.4275  137.8028  156.0902 C.ar    1  UNL1        0.0692
     12 C         142.6512  137.7036  159.7990 C.3     1  UNL1        0.0568
     13 C         142.1199  138.4972  160.9557 C.3     1  UNL1        0.1567
     14 C         141.5885  139.2908  162.1124 C.2     1  UNL1        0.2441
     15 O         142.1873  139.1201  163.4771 O.2     1  UNL1       -0.2731
     16 N         140.4585  140.2550  161.9044 N.am    1  UNL1       -0.2778
     17 C         139.7313  141.1674  162.8471 C.3     1  UNL1        0.0938
     18 C         138.6831  141.9020  162.0649 C.3     1  UNL1        0.0271
     19 C         138.7625  141.4435  160.6389 C.3     1  UNL1        0.0240
     20 C         139.8597  140.4256  160.5397 C.3     1  UNL1        0.0992
     21 C         140.3911  139.6320  159.3830 C.3     1  UNL1        0.1321
     22 N         140.9898  139.4614  160.7477 N.am    1  UNL1       -0.2674
     23 C         140.4585  140.2550  161.9044 C.2     1  UNL1        0.2262
     24 O         139.3285  141.2191  161.6964 O.2     1  UNL1       -0.2749
     25 O         139.1763  139.4489  154.6628 O.3     1  UNL1       -0.4397
     26 C         137.7254  140.6916  153.7404 C.3     1  UNL1        0.0437
     27 C         137.7700  139.2573  154.1775 C.3     1  UNL1        0.1380
     28 C         137.8145  137.8231  154.6145 C.3     1  UNL1        0.0437
     29 C         136.3636  139.0658  153.6921 C.3     1  UNL1        0.0437
     30 C         137.7239  142.9168  162.6126 C.3     1  UNL1        0.0435
     31 C         138.2238  144.2619  163.0498 C.2     1  UNL1        0.0504
     32 O         138.5446  145.3114  162.0273 O.co2   1  UNL1       -0.5492
     33 O         138.4027  144.5573  164.5095 O.co2   1  UNL1       -0.5492
     34 C         141.0572  140.0843  163.2691 C.3     1  UNL1        0.0853
     35 C         140.1936  139.6582  164.4191 C.3     1  UNL1        0.0094
     36 C         140.1309  140.4971  165.6610 C.3     1  UNL1        0.0061
     37 C         139.2672  140.0709  166.8110 C.3     1  UNL1        0.0666
     38 C         138.4663  138.8060  166.7191 C.3     1  UNL1        0.2639
     39 F         137.5308  137.6988  167.1051 F       1  UNL1       -0.2043
     40 F         138.0786  139.2603  168.0951 F       1  UNL1       -0.2043
     41 C         138.5291  137.9672  165.4772 C.3     1  UNL1        0.0666
     42 C         139.3927  138.3933  164.3272 C.3     1  UNL1        0.0061
@<TRIPOS>UNITY_ATOM_ATTR
32 1
charge -1
@<TRIPOS>BOND
     1    26    27    1
     2    27    28    1
     3    27    29    1
     4    27    25    1
     5    25     1    1
     6     1     2    2
     7     1     3   am
     8     3     4   ar
     9     4     5   ar
    10     5     6   ar
    11     6     7   ar
    12     7     8   ar
    13     8     9   ar
    14     9    10   ar
    15    10    11   ar
    16     5    12    1
    17    13    12    1
    18    13    14    1
    19    14    15    2
    20    14    16   am
    21    16    17    1
    22    17    18    1
    23    18    30    1
    24    30    31    1
    25    31    32   ar
    26    31    33   ar
    27    18    19    1
    28    20    19    1
    29    20    21    1
    30    21    22    1
    31    22    23   am
    32    23    24    2
    33    23    34    1
    34    34    35    1
    35    35    36    1
    36    36    37    1
    37    37    38    1
    38    38    39    1
    39    38    40    1
    40    38    41    1
    41    41    42    1
    42    11     3   ar
    43    22    13    1
    44    42    35    1
    45    21     4    1
    46    11     6   ar
    47    20    16    1
@<TRIPOS>MOLECULE
*****
 42 47 0 0 0
SMALL
GASTEIGER

@<TRIPOS>ATOM
      1 C         141.4122  138.0104  158.3064 C.2     1  UNL1        0.4208
      2 O         142.3578  137.6777  159.4224 O.2     1  UNL1       -0.2227
      3 N         140.4174  139.1207  158.4721 N.ar    1  UNL1       -0.2467
      4 C         140.2512  139.9812  159.6895 C.ar    1  UNL1        0.0629
      5 C         139.1452  140.9578  159.4192 C.ar    1  UNL1       -0.0048
      6 C         138.6278  140.7009  158.0349 C.ar    1  UNL1        0.0135
      7 C         137.5424  141.3541  157.2318 C.ar    1  UNL1        0.0012
      8 C         137.2432  140.8718  155.8434 C.ar    1  UNL1        0.0001
      9 C         138.0294  139.7365  155.2580 C.ar    1  UNL1        0.0015
     10 C         139.1149  139.0833  156.0611 C.ar    1  UNL1        0.0177
     11 C         139.4141  139.5655  157.4496 C.ar    1  UNL1        0.0692
     12 C         138.7521  141.9549  160.4687 C.3     1  UNL1        0.0568
     13 C         139.4650  141.9754  161.7883 C.3     1  UNL1        0.1567
     14 C         140.1779  141.9959  163.1079 C.2     1  UNL1        0.2441
     15 O         139.7848  142.9929  164.1573 O.2     1  UNL1       -0.2731
     16 N         141.2839  141.0193  163.3781 N.am    1  UNL1       -0.2778
     17 C         142.1612  140.8024  164.5753 C.3     1  UNL1        0.0938
     18 C         143.0965  139.6713  164.2658 C.3     1  UNL1        0.0271
     19 C         142.7973  139.1891  162.8773 C.3     1  UNL1        0.0240
     20 C         141.6771  140.0222  162.3287 C.3     1  UNL1        0.0992
     21 C         140.9641  140.0017  161.0091 C.3     1  UNL1        0.1321
     22 N         140.5710  140.9988  162.0585 N.am    1  UNL1       -0.2674
     23 C         141.2839  141.0193  163.3781 C.2     1  UNL1        0.2262
     24 O         142.3899  140.0427  163.6482 O.2     1  UNL1       -0.2749
     25 O         141.4616  137.2327  157.0248 O.3     1  UNL1       -0.4397
     26 C         142.9611  138.4112  156.0960 C.3     1  UNL1        0.0437
     27 C         142.7811  136.9476  156.3708 C.3     1  UNL1        0.1380
     28 C         142.6011  135.4840  156.6456 C.3     1  UNL1        0.0437
     29 C         144.1006  136.6625  155.7168 C.3     1  UNL1        0.0437
     30 C         144.1466  139.1193  165.1837 C.3     1  UNL1        0.0435
     31 C         143.7479  138.4763  166.4789 C.2     1  UNL1        0.0504
     32 O         142.6220  139.0512  167.2863 O.co2   1  UNL1       -0.5492
     33 O         144.4750  137.2583  166.9666 O.co2   1  UNL1       -0.5492
     34 C         140.8908  142.0164  164.4275 C.3     1  UNL1        0.0853
     35 C         140.4606  141.5460  165.7853 C.3     1  UNL1        0.0094
     36 C         140.9326  142.2668  167.0131 C.3     1  UNL1        0.0061
     37 C         140.5024  141.7964  168.3709 C.3     1  UNL1        0.0666
     38 C         139.6001  140.6052  168.5009 C.3     1  UNL1        0.2639
     39 F         138.7605  139.5353  169.1336 F       1  UNL1       -0.2043
     40 F         139.7806  140.9544  169.9485 F       1  UNL1       -0.2043
     41 C         139.1281  139.8844  167.2730 C.3     1  UNL1        0.0666
     42 C         139.5583  140.3548  165.9153 C.3     1  UNL1        0.0061
@<TRIPOS>UNITY_ATOM_ATTR
32 1
charge -1
@<TRIPOS>BOND
     1    26    27    1
     2    27    28    1
     3    27    29    1
     4    27    25    1
     5    25     1    1
     6     1     2    2
     7     1     3   am
     8     3     4   ar
     9     4     5   ar
    10     5     6   ar
    11     6     7   ar
    12     7     8   ar
    13     8     9   ar
    14     9    10   ar
    15    10    11   ar
    16     5    12    1
    17    13    12    1
    18    13    14    1
    19    14    15    2
    20    14    16   am
    21    16    17    1
    22    17    18    1
    23    18    30    1
    24    30    31    1
    25    31    32   ar
    26    31    33   ar
    27    18    19    1
    28    20    19    1
    29    20    21    1
    30    21    22    1
    31    22    23   am
    32    23    24    2
    33    23    34    1
    34    34    35    1
    35    35    36    1
    36    36    37    1
    37    37    38    1
    38    38    39    1
    39    38    40    1
    40    38    41    1
    41    41    42    1
    42    11     3   ar
    43    22    13    1
    44    42    35    1
    45    21     4    1
    46    11     6   ar
    47    20    16    1
@<TRIPOS>MOLECULE
*****
 42 47 0 0 0
SMALL
GASTEIGER

@<TRIPOS>ATOM
      1 C         137.6033  140.7081  156.0510 C.2     1  UNL1        0.4208
      2 O         137.1389  141.6781  157.0968 O.2     1  UNL1       -0.2227
      3 N         138.6325  139.6719  156.3934 N.ar    1  UNL1       -0.2467
      4 C         139.2843  139.4851  157.7314 C.ar    1  UNL1        0.0629
      5 C         140.2452  138.3384  157.6227 C.ar    1  UNL1       -0.0048
      6 C         140.1873  137.8166  156.2176 C.ar    1  UNL1        0.0135
      7 C         140.9134  136.6975  155.5318 C.ar    1  UNL1        0.0012
      8 C         140.6428  136.4026  154.0862 C.ar    1  UNL1        0.0001
      9 C         139.6460  137.2268  153.3264 C.ar    1  UNL1        0.0015
     10 C         138.9200  138.3459  154.0122 C.ar    1  UNL1        0.0177
     11 C         139.1906  138.6408  155.4578 C.ar    1  UNL1        0.0692
     12 C         141.0488  137.9175  158.8173 C.3     1  UNL1        0.0568
     13 C         140.8915  138.6433  160.1206 C.3     1  UNL1        0.1567
     14 C         140.7341  139.3691  161.4239 C.2     1  UNL1        0.2441
     15 O         141.5377  138.9483  162.6185 O.2     1  UNL1       -0.2731
     16 N         139.7732  140.5158  161.5325 N.am    1  UNL1       -0.2778
     17 C         139.4075  141.4139  162.6770 C.3     1  UNL1        0.0938
     18 C         138.3779  142.3898  162.1896 C.3     1  UNL1        0.0271
     19 C         138.1073  142.0948  160.7440 C.3     1  UNL1        0.0240
     20 C         138.9696  140.9367  160.3379 C.3     1  UNL1        0.0992
     21 C         139.1270  140.2109  159.0347 C.3     1  UNL1        0.1321
     22 N         139.9306  139.7900  160.2293 N.am    1  UNL1       -0.2674
     23 C         139.7732  140.5158  161.5325 C.2     1  UNL1        0.2262
     24 O         138.8123  141.6624  161.6411 O.2     1  UNL1       -0.2749
     25 O         137.0386  140.7743  154.6631 O.3     1  UNL1       -0.4397
     26 C         135.8052  142.3497  153.9580 C.3     1  UNL1        0.0437
     27 C         135.5635  140.9575  154.4614 C.3     1  UNL1        0.1380
     28 C         135.3218  139.5654  154.9649 C.3     1  UNL1        0.0437
     29 C         134.0885  141.1407  154.2598 C.3     1  UNL1        0.0437
     30 C         137.7323  143.4708  163.0047 C.3     1  UNL1        0.0435
     31 C         138.4628  144.7560  163.2591 C.2     1  UNL1        0.0504
     32 O         138.8452  145.1371  164.6586 O.co2   1  UNL1       -0.5492
     33 O         138.8110  145.6601  162.1138 O.co2   1  UNL1       -0.5492
     34 C         140.5768  140.0949  162.7271 C.3     1  UNL1        0.0853
     35 C         139.8820  139.6251  163.9707 C.3     1  UNL1        0.0094
     36 C         139.1696  138.3051  163.9786 C.3     1  UNL1        0.0061
     37 C         138.4748  137.8353  165.2222 C.3     1  UNL1        0.0666
     38 C         138.4924  138.6854  166.4578 C.3     1  UNL1        0.2639
     39 F         138.2311  139.1308  167.8661 F       1  UNL1       -0.2043
     40 F         137.6892  137.5201  166.9548 F       1  UNL1       -0.2043
     41 C         139.2048  140.0054  166.4499 C.3     1  UNL1        0.0666
     42 C         139.8996  140.4752  165.2064 C.3     1  UNL1        0.0061
@<TRIPOS>UNITY_ATOM_ATTR
32 1
charge -1
@<TRIPOS>BOND
     1    26    27    1
     2    27    28    1
     3    27    29    1
     4    27    25    1
     5    25     1    1
     6     1     2    2
     7     1     3   am
     8     3     4   ar
     9     4     5   ar
    10     5     6   ar
    11     6     7   ar
    12     7     8   ar
    13     8     9   ar
    14     9    10   ar
    15    10    11   ar
    16     5    12    1
    17    13    12    1
    18    13    14    1
    19    14    15    2
    20    14    16   am
    21    16    17    1
    22    17    18    1
    23    18    30    1
    24    30    31    1
    25    31    32   ar
    26    31    33   ar
    27    18    19    1
    28    20    19    1
    29    20    21    1
    30    21    22    1
    31    22    23   am
    32    23    24    2
    33    23    34    1
    34    34    35    1
    35    35    36    1
    36    36    37    1
    37    37    38    1
    38    38    39    1
    39    38    40    1
    40    38    41    1
    41    41    42    1
    42    11     3   ar
    43    22    13    1
    44    42    35    1
    45    21     4    1
    46    11     6   ar
    47    20    16    1
