@<TRIPOS>MOLECULE
*****
 34 37 0 0 0
SMALL
GASTEIGER

@<TRIPOS>ATOM
      1 C         141.5317  143.2131  161.6374 C.ar    1  UNL1        0.0537
      2 C         141.9233  142.2114  160.5919 C.ar    1  UNL1        0.0060
      3 C         142.4287  140.8595  161.0005 C.ar    1  UNL1        0.0173
      4 C         142.5426  140.5093  162.4546 C.ar    1  UNL1        0.0594
      5 C         142.1510  141.5111  163.5000 C.ar    1  UNL1        0.0130
      6 C         141.6455  142.8630  163.0915 C.ar    1  UNL1        0.0057
      7 C         142.3700  140.8861  164.8460 C.ar    1  UNL1       -0.0091
      8 C         142.8970  139.4981  164.6323 C.ar    1  UNL1        0.0331
      9 N         143.0036  139.2652  163.1543 N.ar    1  UNL1       -0.3289
     10 C         143.4865  138.0089  162.4922 C.3     1  UNL1        0.1301
     11 C         143.2116  138.6255  165.8110 C.3     1  UNL1        0.0435
     12 C         142.9993  139.1410  167.2036 C.3     1  UNL1        0.0066
     13 C         142.4723  140.5290  167.4173 C.3     1  UNL1        0.0049
     14 C         142.1577  141.4015  166.2385 C.3     1  UNL1        0.0275
     15 C         142.2600  141.0445  168.8099 C.3     1  UNL1        0.0053
     16 C         142.9632  142.2891  169.2643 C.3     1  UNL1        0.0322
     17 C         142.7509  142.8045  170.6568 C.3     1  UNL1        0.1422
     18 O         141.8353  142.0753  171.5951 O.3     1  UNL1       -0.3538
     19 C         141.1321  140.8307  171.1407 C.3     1  UNL1        0.1422
     20 C         141.3444  140.3153  169.7481 C.3     1  UNL1        0.0322
     21 C         139.4323  146.5809  161.6103 C.3     1  UNL1        0.1152
     22 N         139.9378  145.2290  162.0189 N.am    1  UNL1       -0.2743
     23 C         141.0263  144.5650  161.2288 C.2     1  UNL1        0.2491
     24 O         141.6093  145.2529  160.0301 O.2     1  UNL1       -0.2699
     25 C         139.3547  144.5411  163.2176 C.3     1  UNL1        0.0943
     26 C         137.9398  144.0442  163.1828 C.3     1  UNL1        0.0311
     27 C         137.6245  142.7225  162.5473 C.3     1  UNL1        0.0868
     28 C         138.2434  141.4658  163.0836 C.2     1  UNL1        0.2233
     29 O         139.0577  140.5867  162.1814 O.2     1  UNL1       -0.2751
     30 N         138.0479  141.0882  164.5220 N.am    1  UNL1       -0.2917
     31 H         137.5134  141.6652  165.1141 H       1  UNL1        0.1504
     32 C         138.6668  139.8315  165.0583 C.3     1  UNL1        0.1969
     33 C         137.9915  139.0756  166.1640 C.1     1  UNL1        0.0952
     34 N         137.3163  138.3197  167.2697 N.1     1  UNL1       -0.1941
@<TRIPOS>BOND
     1    21    22    1
     2    22    25    1
     3    25    26    1
     4    26    27    1
     5    27    28    1
     6    28    29    2
     7    28    30   am
     8    30    32    1
     9    32    33    1
    10    33    34    3
    11    22    23   am
    12    23    24    2
    13    23     1    1
    14     1     2   ar
    15     2     3   ar
    16     3     4   ar
    17     4     5   ar
    18     5     6   ar
    19     5     7   ar
    20     7     8   ar
    21     8     9   ar
    22     9    10    1
    23     8    11    1
    24    11    12    1
    25    12    13    1
    26    13    15    1
    27    15    16    1
    28    16    17    1
    29    17    18    1
    30    18    19    1
    31    19    20    1
    32    13    14    1
    33     6     1   ar
    34    14     7    1
    35     9     4   ar
    36    20    15    1
    37    30    31    1
@<TRIPOS>MOLECULE
*****
 34 37 0 0 0
SMALL
GASTEIGER

@<TRIPOS>ATOM
      1 C         141.5948  143.2456  161.5527 C.ar    1  UNL1        0.0537
      2 C         141.9751  142.2364  160.5102 C.ar    1  UNL1        0.0060
      3 C         142.4677  140.8810  160.9229 C.ar    1  UNL1        0.0173
      4 C         142.5799  140.5348  162.3780 C.ar    1  UNL1        0.0594
      5 C         142.1996  141.5440  163.4205 C.ar    1  UNL1        0.0130
      6 C         141.7070  142.8994  163.0078 C.ar    1  UNL1        0.0057
      7 C         142.4142  140.9216  164.7684 C.ar    1  UNL1       -0.0091
      8 C         142.9271  139.5277  164.5588 C.ar    1  UNL1        0.0331
      9 N         143.0295  139.2887  163.0815 N.ar    1  UNL1       -0.3289
     10 C         143.4992  138.0253  162.4232 C.3     1  UNL1        0.1301
     11 C         143.2346  138.6561  165.7402 C.3     1  UNL1        0.0435
     12 C         143.0292  139.1785  167.1312 C.3     1  UNL1        0.0066
     13 C         142.5162  140.5724  167.3408 C.3     1  UNL1        0.0049
     14 C         142.2087  141.4439  166.1593 C.3     1  UNL1        0.0275
     15 C         142.3108  141.0948  168.7318 C.3     1  UNL1        0.0053
     16 C         141.4676  140.3254  169.7050 C.3     1  UNL1        0.0322
     17 C         141.2622  140.8478  171.0960 C.3     1  UNL1        0.1422
     18 O         141.9000  142.1396  171.5138 O.3     1  UNL1       -0.3538
     19 C         142.7432  142.9090  170.5407 C.3     1  UNL1        0.1422
     20 C         142.9486  142.3866  169.1497 C.3     1  UNL1        0.0322
     21 C         139.4577  146.5881  161.4511 C.3     1  UNL1        0.1152
     22 N         139.9502  145.2327  161.8638 N.am    1  UNL1       -0.2743
     23 C         141.1022  144.6010  161.1401 C.2     1  UNL1        0.2491
     24 O         141.7617  145.3247  160.0037 O.2     1  UNL1       -0.2699
     25 C         139.2907  144.5090  163.0002 C.3     1  UNL1        0.0943
     26 C         137.9963  143.7846  162.7776 C.3     1  UNL1        0.0311
     27 C         137.9185  142.6822  161.7633 C.3     1  UNL1        0.0868
     28 C         137.7852  141.2574  162.2129 C.2     1  UNL1        0.2233
     29 O         137.5841  140.9452  163.6662 O.2     1  UNL1       -0.2751
     30 N         137.8529  140.1448  161.2092 N.am    1  UNL1       -0.2917
     31 H         137.9849  140.3498  160.2553 H       1  UNL1        0.1504
     32 C         137.7195  138.7200  161.6587 C.3     1  UNL1        0.1969
     33 C         138.9071  137.9968  162.2213 C.1     1  UNL1        0.0952
     34 N         140.0947  137.2735  162.7839 N.1     1  UNL1       -0.1941
@<TRIPOS>BOND
     1    21    22    1
     2    22    25    1
     3    25    26    1
     4    26    27    1
     5    27    28    1
     6    28    29    2
     7    28    30   am
     8    30    32    1
     9    32    33    1
    10    33    34    3
    11    22    23   am
    12    23    24    2
    13    23     1    1
    14     1     2   ar
    15     2     3   ar
    16     3     4   ar
    17     4     5   ar
    18     5     6   ar
    19     5     7   ar
    20     7     8   ar
    21     8     9   ar
    22     9    10    1
    23     8    11    1
    24    11    12    1
    25    12    13    1
    26    13    15    1
    27    15    16    1
    28    16    17    1
    29    17    18    1
    30    18    19    1
    31    19    20    1
    32    13    14    1
    33     6     1   ar
    34    14     7    1
    35     9     4   ar
    36    20    15    1
    37    30    31    1
@<TRIPOS>MOLECULE
*****
 34 37 0 0 0
SMALL
GASTEIGER

@<TRIPOS>ATOM
      1 C         141.5993  140.8939  160.4681 C.ar    1  UNL1        0.0537
      2 C         140.6754  141.8491  159.7725 C.ar    1  UNL1        0.0060
      3 C         139.8798  142.8388  160.5709 C.ar    1  UNL1        0.0173
      4 C         140.0079  142.8731  162.0650 C.ar    1  UNL1        0.0594
      5 C         140.9317  141.9178  162.7607 C.ar    1  UNL1        0.0130
      6 C         141.7274  140.9282  161.9622 C.ar    1  UNL1        0.0057
      7 C         140.8507  142.1848  164.2345 C.ar    1  UNL1       -0.0091
      8 C         139.8768  143.3051  164.4497 C.ar    1  UNL1        0.0331
      9 N         139.3559  143.7305  163.1089 N.ar    1  UNL1       -0.3289
     10 C         138.3582  144.8217  162.8563 C.3     1  UNL1        0.1301
     11 C         139.5901  143.7932  165.8388 C.3     1  UNL1        0.0435
     12 C         140.2773  143.1610  167.0127 C.3     1  UNL1        0.0066
     13 C         141.2512  142.0407  166.7974 C.3     1  UNL1        0.0049
     14 C         141.5379  141.5526  165.4084 C.3     1  UNL1        0.0275
     15 C         141.9385  141.4084  167.9713 C.3     1  UNL1        0.0053
     16 C         142.8507  142.2267  168.8364 C.3     1  UNL1        0.0322
     17 C         143.5379  141.5944  170.0103 C.3     1  UNL1        0.1422
     18 O         143.3129  140.1438  170.3191 O.3     1  UNL1       -0.3538
     19 C         142.4007  139.3256  169.4541 C.3     1  UNL1        0.1422
     20 C         141.7134  139.9578  168.2802 C.3     1  UNL1        0.0322
     21 C         142.5383  137.6632  158.3632 C.3     1  UNL1        0.1152
     22 N         141.7426  138.6528  159.1616 N.am    1  UNL1       -0.2743
     23 C         142.3950  139.9043  159.6696 C.2     1  UNL1        0.2491
     24 O         143.8431  140.1661  159.3792 O.2     1  UNL1       -0.2699
     25 C         140.2944  138.3909  159.4521 C.3     1  UNL1        0.0943
     26 C         139.8566  138.0659  160.8494 C.3     1  UNL1        0.0311
     27 C         138.4774  138.4364  161.3086 C.3     1  UNL1        0.0868
     28 C         138.2899  139.1698  162.6035 C.2     1  UNL1        0.2233
     29 O         137.5803  140.4913  162.6211 O.2     1  UNL1       -0.2751
     30 N         138.8118  138.5818  163.8809 N.am    1  UNL1       -0.2917
     31 H         139.2775  137.7144  163.8693 H       1  UNL1        0.1504
     32 C         138.6243  139.3152  165.1759 C.3     1  UNL1        0.1969
     33 C         137.9126  138.6515  166.3174 C.1     1  UNL1        0.0952
     34 N         137.2010  137.9879  167.4589 N.1     1  UNL1       -0.1941
@<TRIPOS>BOND
     1    21    22    1
     2    22    25    1
     3    25    26    1
     4    26    27    1
     5    27    28    1
     6    28    29    2
     7    28    30   am
     8    30    32    1
     9    32    33    1
    10    33    34    3
    11    22    23   am
    12    23    24    2
    13    23     1    1
    14     1     2   ar
    15     2     3   ar
    16     3     4   ar
    17     4     5   ar
    18     5     6   ar
    19     5     7   ar
    20     7     8   ar
    21     8     9   ar
    22     9    10    1
    23     8    11    1
    24    11    12    1
    25    12    13    1
    26    13    15    1
    27    15    16    1
    28    16    17    1
    29    17    18    1
    30    18    19    1
    31    19    20    1
    32    13    14    1
    33     6     1   ar
    34    14     7    1
    35     9     4   ar
    36    20    15    1
    37    30    31    1
@<TRIPOS>MOLECULE
*****
 34 37 0 0 0
SMALL
GASTEIGER

@<TRIPOS>ATOM
      1 C         140.0381  141.9280  160.7318 C.ar    1  UNL1        0.0537
      2 C         141.3067  142.0832  159.9467 C.ar    1  UNL1        0.0060
      3 C         142.6179  142.2270  160.6609 C.ar    1  UNL1        0.0173
      4 C         142.6605  142.2156  162.1602 C.ar    1  UNL1        0.0594
      5 C         141.3919  142.0604  162.9453 C.ar    1  UNL1        0.0130
      6 C         140.0807  141.9166  162.2311 C.ar    1  UNL1        0.0057
      7 C         141.7432  142.0851  164.4034 C.ar    1  UNL1       -0.0091
      8 C         143.2289  142.2556  164.5194 C.ar    1  UNL1        0.0331
      9 N         143.7959  142.3362  163.1330 N.ar    1  UNL1       -0.3289
     10 C         145.2439  142.5075  162.7812 C.3     1  UNL1        0.1301
     11 C         143.8737  142.3154  165.8724 C.3     1  UNL1        0.0435
     12 C         143.0326  142.2047  167.1095 C.3     1  UNL1        0.0066
     13 C         141.5469  142.0342  166.9935 C.3     1  UNL1        0.0049
     14 C         140.9022  141.9744  165.6405 C.3     1  UNL1        0.0275
     15 C         140.7058  141.9235  168.2306 C.3     1  UNL1        0.0053
     16 C         139.9251  140.6707  168.4972 C.3     1  UNL1        0.0322
     17 C         139.0841  140.5600  169.7343 C.3     1  UNL1        0.1422
     18 O         139.0237  141.7022  170.7048 O.3     1  UNL1       -0.3538
     19 C         139.8044  142.9550  170.4383 C.3     1  UNL1        0.1422
     20 C         140.6455  143.0657  169.2012 C.3     1  UNL1        0.0322
     21 C         137.1498  140.4287  158.4603 C.3     1  UNL1        0.1152
     22 N         138.4611  140.5725  159.1745 N.am    1  UNL1       -0.2743
     23 C         138.7269  141.7842  160.0176 C.2     1  UNL1        0.2491
     24 O         137.6816  142.8521  160.1466 O.2     1  UNL1       -0.2699
     25 C         139.5064  139.5044  159.0455 C.3     1  UNL1        0.0943
     26 C         139.6491  138.4616  160.1142 C.3     1  UNL1        0.0311
     27 C         138.6727  138.4152  161.2519 C.3     1  UNL1        0.0868
     28 C         139.1609  138.1768  162.6500 C.2     1  UNL1        0.2233
     29 O         140.2288  137.1554  162.9076 O.2     1  UNL1       -0.2751
     30 N         138.5812  138.9598  163.7906 N.am    1  UNL1       -0.2917
     31 H         137.8803  139.6301  163.6215 H       1  UNL1        0.1504
     32 C         139.0695  138.7214  165.1888 C.3     1  UNL1        0.1969
     33 C         138.0990  138.3410  166.2674 C.1     1  UNL1        0.0952
     34 N         137.1286  137.9607  167.3461 N.1     1  UNL1       -0.1941
@<TRIPOS>BOND
     1    21    22    1
     2    22    25    1
     3    25    26    1
     4    26    27    1
     5    27    28    1
     6    28    29    2
     7    28    30   am
     8    30    32    1
     9    32    33    1
    10    33    34    3
    11    22    23   am
    12    23    24    2
    13    23     1    1
    14     1     2   ar
    15     2     3   ar
    16     3     4   ar
    17     4     5   ar
    18     5     6   ar
    19     5     7   ar
    20     7     8   ar
    21     8     9   ar
    22     9    10    1
    23     8    11    1
    24    11    12    1
    25    12    13    1
    26    13    15    1
    27    15    16    1
    28    16    17    1
    29    17    18    1
    30    18    19    1
    31    19    20    1
    32    13    14    1
    33     6     1   ar
    34    14     7    1
    35     9     4   ar
    36    20    15    1
    37    30    31    1
@<TRIPOS>MOLECULE
*****
 34 37 0 0 0
SMALL
GASTEIGER

@<TRIPOS>ATOM
      1 C         139.9003  143.2691  160.8358 C.ar    1  UNL1        0.0537
      2 C         139.3224  142.1094  160.0802 C.ar    1  UNL1        0.0060
      3 C         139.0198  140.8251  160.7939 C.ar    1  UNL1        0.0173
      4 C         139.2952  140.7007  162.2631 C.ar    1  UNL1        0.0594
      5 C         139.8731  141.8604  163.0187 C.ar    1  UNL1        0.0130
      6 C         140.1756  143.1446  162.3051 C.ar    1  UNL1        0.0057
      7 C         140.0368  141.4453  164.4508 C.ar    1  UNL1       -0.0091
      8 C         139.5601  140.0290  164.5803 C.ar    1  UNL1        0.0331
      9 N         139.1017  139.5688  163.2282 N.ar    1  UNL1       -0.3289
     10 C         138.5473  138.2145  162.8990 C.3     1  UNL1        0.1301
     11 C         139.6049  139.3414  165.9126 C.3     1  UNL1        0.0435
     12 C         140.1265  140.0701  167.1155 C.3     1  UNL1        0.0066
     13 C         140.6032  141.4864  166.9860 C.3     1  UNL1        0.0049
     14 C         140.5584  142.1740  165.6537 C.3     1  UNL1        0.0275
     15 C         141.1248  142.2151  168.1889 C.3     1  UNL1        0.0053
     16 C         142.4890  141.8970  168.7253 C.3     1  UNL1        0.0322
     17 C         143.0106  142.6257  169.9282 C.3     1  UNL1        0.1422
     18 O         142.1679  143.6725  170.5947 O.3     1  UNL1       -0.3538
     19 C         140.8037  143.9906  170.0583 C.3     1  UNL1        0.1422
     20 C         140.2821  143.2619  168.8554 C.3     1  UNL1        0.0322
     21 C         141.4364  145.8407  158.2326 C.3     1  UNL1        0.1152
     22 N         141.1338  144.5565  158.9462 N.am    1  UNL1       -0.2743
     23 C         140.2028  144.5533  160.1222 C.2     1  UNL1        0.2491
     24 O         139.5743  145.8344  160.5846 O.2     1  UNL1       -0.2699
     25 C         141.7624  143.2754  158.4837 C.3     1  UNL1        0.0943
     26 C         143.1893  142.9715  158.8324 C.3     1  UNL1        0.0311
     27 C         143.5052  142.1322  160.0348 C.3     1  UNL1        0.0868
     28 C         144.0865  142.7689  161.2622 C.2     1  UNL1        0.2233
     29 O         145.2813  142.1563  161.9308 O.2     1  UNL1       -0.2751
     30 N         143.4728  144.0183  161.8211 N.am    1  UNL1       -0.2917
     31 H         142.6886  144.4204  161.3823 H       1  UNL1        0.1504
     32 C         144.0540  144.6552  163.0486 C.3     1  UNL1        0.1969
     33 C         144.0469  143.9143  164.3528 C.1     1  UNL1        0.0952
     34 N         144.0399  143.1735  165.6571 N.1     1  UNL1       -0.1941
@<TRIPOS>BOND
     1    21    22    1
     2    22    25    1
     3    25    26    1
     4    26    27    1
     5    27    28    1
     6    28    29    2
     7    28    30   am
     8    30    32    1
     9    32    33    1
    10    33    34    3
    11    22    23   am
    12    23    24    2
    13    23     1    1
    14     1     2   ar
    15     2     3   ar
    16     3     4   ar
    17     4     5   ar
    18     5     6   ar
    19     5     7   ar
    20     7     8   ar
    21     8     9   ar
    22     9    10    1
    23     8    11    1
    24    11    12    1
    25    12    13    1
    26    13    15    1
    27    15    16    1
    28    16    17    1
    29    17    18    1
    30    18    19    1
    31    19    20    1
    32    13    14    1
    33     6     1   ar
    34    14     7    1
    35     9     4   ar
    36    20    15    1
    37    30    31    1
@<TRIPOS>MOLECULE
*****
 34 37 0 0 0
SMALL
GASTEIGER

@<TRIPOS>ATOM
      1 C         141.5841  143.2647  161.5841 C.ar    1  UNL1        0.0537
      2 C         141.9385  142.2476  160.5402 C.ar    1  UNL1        0.0060
      3 C         142.4070  140.8832  160.9510 C.ar    1  UNL1        0.0173
      4 C         142.5211  140.5358  162.4057 C.ar    1  UNL1        0.0594
      5 C         142.1667  141.5529  163.4496 C.ar    1  UNL1        0.0130
      6 C         141.6982  142.9174  163.0389 C.ar    1  UNL1        0.0057
      7 C         142.3771  140.9273  164.7967 C.ar    1  UNL1       -0.0091
      8 C         142.8615  139.5236  164.5852 C.ar    1  UNL1        0.0331
      9 N         142.9505  139.2816  163.1075 N.ar    1  UNL1       -0.3289
     10 C         143.3915  138.0089  162.4474 C.3     1  UNL1        0.1301
     11 C         143.1590  138.6470  165.7654 C.3     1  UNL1        0.0435
     12 C         142.9721  139.1742  167.1572 C.3     1  UNL1        0.0066
     13 C         142.4877  140.5779  167.3687 C.3     1  UNL1        0.0049
     14 C         142.1902  141.4545  166.1884 C.3     1  UNL1        0.0275
     15 C         142.3007  141.1051  168.7605 C.3     1  UNL1        0.0053
     16 C         142.9286  142.4076  169.1598 C.3     1  UNL1        0.0322
     17 C         142.7416  142.9348  170.5517 C.3     1  UNL1        0.1422
     18 O         141.9267  142.1595  171.5442 O.3     1  UNL1       -0.3538
     19 C         141.2989  140.8571  171.1449 C.3     1  UNL1        0.1422
     20 C         141.4858  140.3299  169.7531 C.3     1  UNL1        0.0322
     21 C         139.5388  146.6651  161.5181 C.3     1  UNL1        0.1152
     22 N         140.0073  145.3006  161.9289 N.am    1  UNL1       -0.2743
     23 C         141.1156  144.6292  161.1733 C.2     1  UNL1        0.2491
     24 O         141.7553  145.3222  160.0070 O.2     1  UNL1       -0.2699
     25 C         139.3675  144.6076  163.0953 C.3     1  UNL1        0.0943
     26 C         137.9613  144.0973  162.9853 C.3     1  UNL1        0.0311
     27 C         137.7098  142.6643  162.6201 C.3     1  UNL1        0.0868
     28 C         138.2299  142.1184  161.3235 C.2     1  UNL1        0.2233
     29 O         138.8142  140.7378  161.2715 O.2     1  UNL1       -0.2751
     30 N         138.1658  142.9530  160.0788 N.am    1  UNL1       -0.2917
     31 H         137.7824  143.8591  160.1129 H       1  UNL1        0.1504
     32 C         138.6860  142.4070  158.7821 C.3     1  UNL1        0.1969
     33 C         137.8025  142.3834  157.5701 C.1     1  UNL1        0.0952
     34 N         136.9191  142.3597  156.3581 N.1     1  UNL1       -0.1941
@<TRIPOS>BOND
     1    21    22    1
     2    22    25    1
     3    25    26    1
     4    26    27    1
     5    27    28    1
     6    28    29    2
     7    28    30   am
     8    30    32    1
     9    32    33    1
    10    33    34    3
    11    22    23   am
    12    23    24    2
    13    23     1    1
    14     1     2   ar
    15     2     3   ar
    16     3     4   ar
    17     4     5   ar
    18     5     6   ar
    19     5     7   ar
    20     7     8   ar
    21     8     9   ar
    22     9    10    1
    23     8    11    1
    24    11    12    1
    25    12    13    1
    26    13    15    1
    27    15    16    1
    28    16    17    1
    29    17    18    1
    30    18    19    1
    31    19    20    1
    32    13    14    1
    33     6     1   ar
    34    14     7    1
    35     9     4   ar
    36    20    15    1
    37    30    31    1
@<TRIPOS>MOLECULE
*****
 34 37 0 0 0
SMALL
GASTEIGER

@<TRIPOS>ATOM
      1 C         140.0073  143.2996  160.6640 C.ar    1  UNL1        0.0537
      2 C         139.3442  142.1855  159.9099 C.ar    1  UNL1        0.0060
      3 C         138.9314  140.9351  160.6284 C.ar    1  UNL1        0.0173
      4 C         139.1817  140.7990  162.1010 C.ar    1  UNL1        0.0594
      5 C         139.8449  141.9131  162.8551 C.ar    1  UNL1        0.0130
      6 C         140.2577  143.1635  162.1366 C.ar    1  UNL1        0.0057
      7 C         139.9606  141.4962  164.2914 C.ar    1  UNL1       -0.0091
      8 C         139.3690  140.1243  164.4249 C.ar    1  UNL1        0.0331
      9 N         138.8876  139.6934  163.0711 N.ar    1  UNL1       -0.3289
     10 C         138.2279  138.3864  162.7448 C.3     1  UNL1        0.1301
     11 C         139.3450  139.4446  165.7618 C.3     1  UNL1        0.0435
     12 C         139.9127  140.1369  166.9653 C.3     1  UNL1        0.0066
     13 C         140.5043  141.5088  166.8319 C.3     1  UNL1        0.0049
     14 C         140.5283  142.1884  165.4949 C.3     1  UNL1        0.0275
     15 C         141.0720  142.2011  168.0354 C.3     1  UNL1        0.0053
     16 C         140.2479  143.2105  168.7783 C.3     1  UNL1        0.0322
     17 C         140.8156  143.9028  169.9819 C.3     1  UNL1        0.1422
     18 O         142.2075  143.5856  170.4425 O.3     1  UNL1       -0.3538
     19 C         143.0317  142.5763  169.6996 C.3     1  UNL1        0.1422
     20 C         142.4640  141.8840  168.4960 C.3     1  UNL1        0.0322
     21 C         141.9488  145.7562  158.2256 C.3     1  UNL1        0.1152
     22 N         141.5360  144.5059  158.9441 N.am    1  UNL1       -0.2743
     23 C         140.4201  144.5500  159.9455 C.2     1  UNL1        0.2491
     24 O         139.7170  145.8444  160.2284 O.2     1  UNL1       -0.2699
     25 C         142.2392  143.2114  158.6612 C.3     1  UNL1        0.0943
     26 C         143.5811  142.9376  159.2729 C.3     1  UNL1        0.0311
     27 C         143.7649  143.0465  160.7577 C.3     1  UNL1        0.0868
     28 C         144.0404  141.8170  161.5715 C.2     1  UNL1        0.2233
     29 O         145.3973  141.6056  162.1751 O.2     1  UNL1       -0.2751
     30 N         142.9592  140.7989  161.7817 N.am    1  UNL1       -0.2917
     31 H         142.0686  140.9376  161.3855 H       1  UNL1        0.1504
     32 C         143.2347  139.5693  162.5955 C.3     1  UNL1        0.1969
     33 C         142.3134  138.3889  162.5065 C.1     1  UNL1        0.0952
     34 N         141.3921  137.2086  162.4174 N.1     1  UNL1       -0.1941
@<TRIPOS>BOND
     1    21    22    1
     2    22    25    1
     3    25    26    1
     4    26    27    1
     5    27    28    1
     6    28    29    2
     7    28    30   am
     8    30    32    1
     9    32    33    1
    10    33    34    3
    11    22    23   am
    12    23    24    2
    13    23     1    1
    14     1     2   ar
    15     2     3   ar
    16     3     4   ar
    17     4     5   ar
    18     5     6   ar
    19     5     7   ar
    20     7     8   ar
    21     8     9   ar
    22     9    10    1
    23     8    11    1
    24    11    12    1
    25    12    13    1
    26    13    15    1
    27    15    16    1
    28    16    17    1
    29    17    18    1
    30    18    19    1
    31    19    20    1
    32    13    14    1
    33     6     1   ar
    34    14     7    1
    35     9     4   ar
    36    20    15    1
    37    30    31    1
@<TRIPOS>MOLECULE
*****
 34 37 0 0 0
SMALL
GASTEIGER

@<TRIPOS>ATOM
      1 C         141.7407  141.2345  160.3705 C.ar    1  UNL1        0.0537
      2 C         140.9023  140.1589  159.7459 C.ar    1  UNL1        0.0060
      3 C         140.0695  139.2598  160.6108 C.ar    1  UNL1        0.0173
      4 C         140.0751  139.4363  162.1004 C.ar    1  UNL1        0.0594
      5 C         140.9135  140.5119  162.7250 C.ar    1  UNL1        0.0130
      6 C         141.7463  141.4110  161.8600 C.ar    1  UNL1        0.0057
      7 C         140.7184  140.4476  164.2109 C.ar    1  UNL1       -0.0091
      8 C         139.7595  139.3322  164.5046 C.ar    1  UNL1        0.0331
      9 N         139.3619  138.7072  163.2002 N.ar    1  UNL1       -0.3289
     10 C         138.4169  137.5554  163.0262 C.3     1  UNL1        0.1301
     11 C         139.3721  139.0298  165.9217 C.3     1  UNL1        0.0435
     12 C         139.9438  139.8427  167.0453 C.3     1  UNL1        0.0066
     13 C         140.9028  140.9581  166.7516 C.3     1  UNL1        0.0049
     14 C         141.2901  141.2605  165.3343 C.3     1  UNL1        0.0275
     15 C         141.4745  141.7710  167.8751 C.3     1  UNL1        0.0053
     16 C         142.9316  141.6617  168.2141 C.3     1  UNL1        0.0322
     17 C         143.5033  142.4746  169.3377 C.3     1  UNL1        0.1422
     18 O         142.6178  143.3970  170.1222 O.3     1  UNL1       -0.3538
     19 C         141.1607  143.5063  169.7831 C.3     1  UNL1        0.1422
     20 C         140.5891  142.6934  168.6596 C.3     1  UNL1        0.0322
     21 C         142.8408  144.3303  158.1443 C.3     1  UNL1        0.1152
     22 N         142.0080  143.4312  159.0093 N.am    1  UNL1       -0.2743
     23 C         142.5735  142.1335  159.5055 C.2     1  UNL1        0.2491
     24 O         143.9717  141.7350  159.1368 O.2     1  UNL1       -0.2699
     25 C         140.6097  143.8298  159.3780 C.3     1  UNL1        0.0943
     26 C         140.3710  145.0789  160.1735 C.3     1  UNL1        0.0311
     27 C         140.0819  144.9886  161.6427 C.3     1  UNL1        0.0868
     28 C         141.2119  144.9473  162.6282 C.2     1  UNL1        0.2233
     29 O         140.9226  144.8863  164.0988 O.2     1  UNL1       -0.2751
     30 N         142.6311  144.9669  162.1432 N.am    1  UNL1       -0.2917
     31 H         142.8210  145.0070  161.1780 H       1  UNL1        0.1504
     32 C         143.7612  144.9256  163.1288 C.3     1  UNL1        0.1969
     33 C         144.2175  143.6124  163.6921 C.1     1  UNL1        0.0952
     34 N         144.6738  142.2992  164.2554 N.1     1  UNL1       -0.1941
@<TRIPOS>BOND
     1    21    22    1
     2    22    25    1
     3    25    26    1
     4    26    27    1
     5    27    28    1
     6    28    29    2
     7    28    30   am
     8    30    32    1
     9    32    33    1
    10    33    34    3
    11    22    23   am
    12    23    24    2
    13    23     1    1
    14     1     2   ar
    15     2     3   ar
    16     3     4   ar
    17     4     5   ar
    18     5     6   ar
    19     5     7   ar
    20     7     8   ar
    21     8     9   ar
    22     9    10    1
    23     8    11    1
    24    11    12    1
    25    12    13    1
    26    13    15    1
    27    15    16    1
    28    16    17    1
    29    17    18    1
    30    18    19    1
    31    19    20    1
    32    13    14    1
    33     6     1   ar
    34    14     7    1
    35     9     4   ar
    36    20    15    1
    37    30    31    1
@<TRIPOS>MOLECULE
*****
 34 37 0 0 0
SMALL
GASTEIGER

@<TRIPOS>ATOM
      1 C         142.0634  141.2332  159.8274 C.ar    1  UNL1        0.0537
      2 C         141.7757  142.3972  158.9261 C.ar    1  UNL1        0.0060
      3 C         141.1467  143.6397  159.4834 C.ar    1  UNL1        0.0173
      4 C         140.8055  143.7182  160.9419 C.ar    1  UNL1        0.0594
      5 C         141.0933  142.5542  161.8432 C.ar    1  UNL1        0.0130
      6 C         141.7222  141.3117  161.2859 C.ar    1  UNL1        0.0057
      7 C         140.6495  142.9199  163.2287 C.ar    1  UNL1       -0.0091
      8 C         140.0875  144.3099  163.1836 C.ar    1  UNL1        0.0331
      9 N         140.1839  144.8033  161.7703 N.ar    1  UNL1       -0.3289
     10 C         139.7372  146.1460  161.2728 C.3     1  UNL1        0.1301
     11 C         139.5605  144.9468  164.4352 C.3     1  UNL1        0.0435
     12 C         139.5955  144.1936  165.7320 C.3     1  UNL1        0.0066
     13 C         140.1575  142.8036  165.7770 C.3     1  UNL1        0.0049
     14 C         140.6845  142.1668  164.5253 C.3     1  UNL1        0.0275
     15 C         140.1926  142.0505  167.0738 C.3     1  UNL1        0.0053
     16 C         139.9502  140.5703  167.0882 C.3     1  UNL1        0.0322
     17 C         139.9853  139.8171  168.3850 C.3     1  UNL1        0.1422
     18 O         140.2627  140.5443  169.6673 O.3     1  UNL1       -0.3538
     19 C         140.5050  142.0245  169.6529 C.3     1  UNL1        0.1422
     20 C         140.4700  142.7776  168.3562 C.3     1  UNL1        0.0322
     21 C         142.4573  137.6491  158.1693 C.3     1  UNL1        0.1152
     22 N         141.8283  138.8916  158.7266 N.am    1  UNL1       -0.2743
     23 C         142.6924  139.9907  159.2701 C.2     1  UNL1        0.2491
     24 O         144.1854  139.8472  159.2564 O.2     1  UNL1       -0.2699
     25 C         140.3352  139.0351  158.7403 C.3     1  UNL1        0.0943
     26 C         139.5099  138.1989  159.6729 C.3     1  UNL1        0.0311
     27 C         139.4137  138.5668  161.1240 C.3     1  UNL1        0.0868
     28 C         140.3564  137.9544  162.1170 C.2     1  UNL1        0.2233
     29 O         141.6893  137.4359  161.6649 O.2     1  UNL1       -0.2751
     30 N         139.9662  137.8604  163.5623 N.am    1  UNL1       -0.2917
     31 H         139.0913  138.2007  163.8591 H       1  UNL1        0.1504
     32 C         140.9089  137.2480  164.5555 C.3     1  UNL1        0.1969
     33 C         142.0229  138.0676  165.1361 C.1     1  UNL1        0.0952
     34 N         143.1369  138.8871  165.7168 N.1     1  UNL1       -0.1941
@<TRIPOS>BOND
     1    21    22    1
     2    22    25    1
     3    25    26    1
     4    26    27    1
     5    27    28    1
     6    28    29    2
     7    28    30   am
     8    30    32    1
     9    32    33    1
    10    33    34    3
    11    22    23   am
    12    23    24    2
    13    23     1    1
    14     1     2   ar
    15     2     3   ar
    16     3     4   ar
    17     4     5   ar
    18     5     6   ar
    19     5     7   ar
    20     7     8   ar
    21     8     9   ar
    22     9    10    1
    23     8    11    1
    24    11    12    1
    25    12    13    1
    26    13    15    1
    27    15    16    1
    28    16    17    1
    29    17    18    1
    30    18    19    1
    31    19    20    1
    32    13    14    1
    33     6     1   ar
    34    14     7    1
    35     9     4   ar
    36    20    15    1
    37    30    31    1
