@<TRIPOS>MOLECULE
*****
 29 32 0 0 0
SMALL
GASTEIGER

@<TRIPOS>ATOM
      1 C         142.0626  143.6862  161.7159 C.ar    1  UNL1        0.1731
      2 N         143.2343  144.6173  161.8163 N.ar    1  UNL1       -0.1316
      3 N         144.0875  144.6187  163.0500 N.ar    1  UNL1       -0.1510
      4 C         143.7690  143.6891  164.1833 C.ar    1  UNL1        0.0836
      5 C         144.6222  143.6906  165.4170 C.3     1  UNL1        0.0541
      6 C         142.5972  142.7580  164.0829 C.ar    1  UNL1        0.0511
      7 C         142.0425  141.7368  165.0313 C.ar    1  UNL1        0.0637
      8 C         142.5881  141.4062  166.3888 C.3     1  UNL1        0.0522
      9 N         140.8465  141.1042  164.3837 N.ar    1  UNL1       -0.2306
     10 N         140.6620  141.7344  163.0351 N.ar    1  UNL1       -0.1624
     11 C         141.7441  142.7566  162.8492 C.ar    1  UNL1        0.1367
     12 C         139.9861  140.0299  164.9800 C.ar    1  UNL1        0.1166
     13 C         138.9261  140.3865  165.9796 C.ar    1  UNL1        0.0231
     14 C         138.0657  139.3122  166.5759 C.ar    1  UNL1        0.0131
     15 C         138.2653  137.8813  166.1727 C.ar    1  UNL1        0.0608
     16 CL        137.4049  136.8070  166.7690 Cl      1  UNL1       -0.0821
     17 C         139.3253  137.5247  165.1731 C.ar    1  UNL1        0.0501
     18 C         140.1857  138.5990  164.5768 C.ar    1  UNL1        0.1651
     19 O         141.2457  138.2423  163.5771 O.3     1  UNL1       -0.4029
     20 C         142.6897  138.5000  163.8910 C.3     1  UNL1        0.5753
     21 F         144.1337  138.7577  164.2049 F       1  UNL1       -0.1328
     22 F         142.5298  137.7950  165.2053 F       1  UNL1       -0.1328
     23 F         142.8496  139.2050  162.5767 F       1  UNL1       -0.1328
     24 C         140.0027  143.6826  158.7375 C.3     1  UNL1        0.1547
     25 C         140.2355  144.6442  159.8649 C.3     1  UNL1        0.1235
     26 N         141.2093  143.6847  160.4822 N.pl3   1  UNL1       -0.2855
     27 C         140.9765  142.7231  159.3548 C.3     1  UNL1        0.1235
     28 C         139.6221  144.3812  156.2642 C.3     1  UNL1        0.1741
     29 O         139.1495  143.6811  157.5038 O.3     1  UNL1       -0.3501
@<TRIPOS>BOND
     1    28    29    1
     2    29    24    1
     3    24    25    1
     4    25    26    1
     5    26     1    1
     6     1     2   ar
     7     2     3   ar
     8     3     4   ar
     9     4     5    1
    10     4     6   ar
    11     6     7   ar
    12     7     8    1
    13     7     9   ar
    14     9    12    1
    15    12    13   ar
    16    13    14   ar
    17    14    15   ar
    18    15    16    1
    19    15    17   ar
    20    17    18   ar
    21    18    19    1
    22    19    20    1
    23    20    21    1
    24    20    22    1
    25    20    23    1
    26     9    10   ar
    27    10    11   ar
    28    26    27    1
    29    27    24    1
    30    11     1   ar
    31    11     6   ar
    32    18    12   ar
@<TRIPOS>MOLECULE
*****
 29 32 0 0 0
SMALL
GASTEIGER

@<TRIPOS>ATOM
      1 C         142.3579  142.6703  160.7065 C.ar    1  UNL1        0.1731
      2 N         143.7350  143.2239  160.4897 N.ar    1  UNL1       -0.1316
      3 N         144.8108  142.9775  161.5055 N.ar    1  UNL1       -0.1510
      4 C         144.5095  142.1775  162.7381 C.ar    1  UNL1        0.0836
      5 C         145.5854  141.9311  163.7539 C.3     1  UNL1        0.0541
      6 C         143.1324  141.6239  162.9549 C.ar    1  UNL1        0.0511
      7 C         142.5432  140.8046  164.0646 C.ar    1  UNL1        0.0637
      8 C         143.2669  140.3287  165.2892 C.3     1  UNL1        0.0522
      9 N         141.1032  140.5445  163.7346 N.ar    1  UNL1       -0.2306
     10 N         140.8024  141.2032  162.4210 N.ar    1  UNL1       -0.1624
     11 C         142.0566  141.8703  161.9391 C.ar    1  UNL1        0.1367
     12 C         140.1341  139.7630  164.5714 C.ar    1  UNL1        0.1166
     13 C         139.8902  138.3123  164.2785 C.ar    1  UNL1        0.0231
     14 C         138.9212  137.5309  165.1153 C.ar    1  UNL1        0.0131
     15 C         138.1961  138.2002  166.2450 C.ar    1  UNL1        0.0608
     16 CL        137.2270  137.4186  167.0819 Cl      1  UNL1       -0.0821
     17 C         138.4400  139.6509  166.5379 C.ar    1  UNL1        0.0501
     18 C         139.4090  140.4323  165.7011 C.ar    1  UNL1        0.1651
     19 O         139.6530  141.8831  165.9940 O.3     1  UNL1       -0.4029
     20 C         139.2114  142.9304  165.0151 C.3     1  UNL1        0.5753
     21 F         138.7698  143.9777  164.0363 F       1  UNL1       -0.1328
     22 F         137.8452  142.3127  164.9705 F       1  UNL1       -0.1328
     23 F         140.5776  143.5481  165.0598 F       1  UNL1       -0.1328
     24 C         139.7605  143.2652  158.2542 C.3     1  UNL1        0.1547
     25 C         140.9950  142.4147  158.3066 C.3     1  UNL1        0.1235
     26 N         141.2820  142.9167  159.6907 N.pl3   1  UNL1       -0.2855
     27 C         140.0475  143.7672  159.6382 C.3     1  UNL1        0.1235
     28 C         137.5436  142.5470  157.1054 C.3     1  UNL1        0.1741
     29 O         138.6846  143.5116  157.2384 O.3     1  UNL1       -0.3501
@<TRIPOS>BOND
     1    28    29    1
     2    29    24    1
     3    24    25    1
     4    25    26    1
     5    26     1    1
     6     1     2   ar
     7     2     3   ar
     8     3     4   ar
     9     4     5    1
    10     4     6   ar
    11     6     7   ar
    12     7     8    1
    13     7     9   ar
    14     9    12    1
    15    12    13   ar
    16    13    14   ar
    17    14    15   ar
    18    15    16    1
    19    15    17   ar
    20    17    18   ar
    21    18    19    1
    22    19    20    1
    23    20    21    1
    24    20    22    1
    25    20    23    1
    26     9    10   ar
    27    10    11   ar
    28    26    27    1
    29    27    24    1
    30    11     1   ar
    31    11     6   ar
    32    18    12   ar
@<TRIPOS>MOLECULE
*****
 29 32 0 0 0
SMALL
GASTEIGER

@<TRIPOS>ATOM
      1 C         140.7553  141.6393  160.8136 C.ar    1  UNL1        0.1731
      2 N         140.1588  142.6704  159.9021 N.ar    1  UNL1       -0.1316
      3 N         139.4861  143.8812  160.4778 N.ar    1  UNL1       -0.1510
      4 C         139.4100  144.0608  161.9651 C.ar    1  UNL1        0.0836
      5 C         138.7373  145.2717  162.5408 C.3     1  UNL1        0.0541
      6 C         140.0065  143.0297  162.8766 C.ar    1  UNL1        0.0511
      7 C         140.0843  142.9362  164.3716 C.ar    1  UNL1        0.0637
      8 C         139.5374  143.9358  165.3471 C.3     1  UNL1        0.0522
      9 N         140.8051  141.6677  164.7199 N.ar    1  UNL1       -0.2306
     10 N         141.1727  140.9771  163.4401 N.ar    1  UNL1       -0.1624
     11 C         140.6791  141.8189  162.3008 C.ar    1  UNL1        0.1367
     12 C         141.1055  141.1760  166.1049 C.ar    1  UNL1        0.1166
     13 C         142.3834  141.5748  166.7816 C.ar    1  UNL1        0.0231
     14 C         142.6838  141.0832  168.1665 C.ar    1  UNL1        0.0131
     15 C         141.7063  140.1928  168.8747 C.ar    1  UNL1        0.0608
     16 CL        142.0067  139.7012  170.2597 Cl      1  UNL1       -0.0821
     17 C         140.4284  139.7940  168.1981 C.ar    1  UNL1        0.0501
     18 C         140.1280  140.2856  166.8131 C.ar    1  UNL1        0.1651
     19 O         138.8501  139.8868  166.1364 O.3     1  UNL1       -0.4029
     20 C         138.4224  138.4491  166.1289 C.3     1  UNL1        0.5753
     21 F         137.9947  137.0114  166.1214 F       1  UNL1       -0.1328
     22 F         137.2704  138.7871  167.0281 F       1  UNL1       -0.1328
     23 F         139.5744  138.1111  165.2297 F       1  UNL1       -0.1328
     24 C         142.3792  138.7160  159.4237 C.3     1  UNL1        0.1547
     25 C         142.7390  140.1660  159.5579 C.3     1  UNL1        0.1235
     26 N         141.4280  140.4284  160.2378 N.pl3   1  UNL1       -0.2855
     27 C         141.0682  138.9784  160.1037 C.3     1  UNL1        0.1235
     28 C         142.7149  137.0491  157.4593 C.3     1  UNL1        0.1741
     29 O         143.0518  137.5052  158.8480 O.3     1  UNL1       -0.3501
@<TRIPOS>BOND
     1    28    29    1
     2    29    24    1
     3    24    25    1
     4    25    26    1
     5    26     1    1
     6     1     2   ar
     7     2     3   ar
     8     3     4   ar
     9     4     5    1
    10     4     6   ar
    11     6     7   ar
    12     7     8    1
    13     7     9   ar
    14     9    12    1
    15    12    13   ar
    16    13    14   ar
    17    14    15   ar
    18    15    16    1
    19    15    17   ar
    20    17    18   ar
    21    18    19    1
    22    19    20    1
    23    20    21    1
    24    20    22    1
    25    20    23    1
    26     9    10   ar
    27    10    11   ar
    28    26    27    1
    29    27    24    1
    30    11     1   ar
    31    11     6   ar
    32    18    12   ar
@<TRIPOS>MOLECULE
*****
 29 32 0 0 0
SMALL
GASTEIGER

@<TRIPOS>ATOM
      1 C         140.2005  141.4095  161.0802 C.ar    1  UNL1        0.1731
      2 N         139.5706  140.3602  160.2129 N.ar    1  UNL1       -0.1316
      3 N         139.0577  139.0904  160.8247 N.ar    1  UNL1       -0.1510
      4 C         139.1747  138.8698  162.3038 C.ar    1  UNL1        0.0836
      5 C         138.6618  137.5999  162.9156 C.3     1  UNL1        0.0541
      6 C         139.8046  139.9191  163.1711 C.ar    1  UNL1        0.0511
      7 C         140.0562  139.9818  164.6485 C.ar    1  UNL1        0.0637
      8 C         139.7016  138.9219  165.6489 C.3     1  UNL1        0.0522
      9 N         140.7246  141.2904  164.9497 N.ar    1  UNL1       -0.2306
     10 N         140.8861  142.0365  163.6585 N.ar    1  UNL1       -0.1624
     11 C         140.3175  141.1890  162.5592 C.ar    1  UNL1        0.1367
     12 C         141.1558  141.7689  166.3045 C.ar    1  UNL1        0.1166
     13 C         140.2122  142.5689  167.1527 C.ar    1  UNL1        0.0231
     14 C         140.6435  143.0474  168.5073 C.ar    1  UNL1        0.0131
     15 C         142.0183  142.7258  169.0137 C.ar    1  UNL1        0.0608
     16 CL        142.4495  143.2043  170.3684 Cl      1  UNL1       -0.0821
     17 C         142.9619  141.9258  168.1655 C.ar    1  UNL1        0.0501
     18 C         142.5307  141.4473  166.8108 C.ar    1  UNL1        0.1651
     19 O         143.4743  140.6473  165.9625 O.3     1  UNL1       -0.4029
     20 C         143.2918  139.1642  165.8321 C.3     1  UNL1        0.5753
     21 F         143.1092  137.6810  165.7017 F       1  UNL1       -0.1328
     22 F         143.3048  139.2940  164.3378 F       1  UNL1       -0.1328
     23 F         143.2787  139.0344  167.3264 F       1  UNL1       -0.1328
     24 C         141.4387  144.4754  159.6031 C.3     1  UNL1        0.1547
     25 C         141.9858  143.4672  160.5697 C.3     1  UNL1        0.1235
     26 N         140.7134  142.6795  160.4683 N.pl3   1  UNL1       -0.2855
     27 C         140.1663  143.6876  159.5017 C.3     1  UNL1        0.1235
     28 C         142.0230  145.8835  157.4993 C.3     1  UNL1        0.1741
     29 O         141.9516  145.7452  158.9913 O.3     1  UNL1       -0.3501
@<TRIPOS>BOND
     1    28    29    1
     2    29    24    1
     3    24    25    1
     4    25    26    1
     5    26     1    1
     6     1     2   ar
     7     2     3   ar
     8     3     4   ar
     9     4     5    1
    10     4     6   ar
    11     6     7   ar
    12     7     8    1
    13     7     9   ar
    14     9    12    1
    15    12    13   ar
    16    13    14   ar
    17    14    15   ar
    18    15    16    1
    19    15    17   ar
    20    17    18   ar
    21    18    19    1
    22    19    20    1
    23    20    21    1
    24    20    22    1
    25    20    23    1
    26     9    10   ar
    27    10    11   ar
    28    26    27    1
    29    27    24    1
    30    11     1   ar
    31    11     6   ar
    32    18    12   ar
@<TRIPOS>MOLECULE
*****
 29 32 0 0 0
SMALL
GASTEIGER

@<TRIPOS>ATOM
      1 C         142.3755  142.6050  160.6117 C.ar    1  UNL1        0.1731
      2 N         143.7616  143.1201  160.3603 N.ar    1  UNL1       -0.1316
      3 N         144.8535  142.8503  161.3528 N.ar    1  UNL1       -0.1510
      4 C         144.5591  142.0654  162.5967 C.ar    1  UNL1        0.0836
      5 C         145.6510  141.7956  163.5892 C.3     1  UNL1        0.0541
      6 C         143.1730  141.5503  162.8481 C.ar    1  UNL1        0.0511
      7 C         142.5876  140.7531  163.9758 C.ar    1  UNL1        0.0637
      8 C         143.3262  140.2646  165.1865 C.3     1  UNL1        0.0522
      9 N         141.1340  140.5301  163.6803 N.ar    1  UNL1       -0.2306
     10 N         140.8210  141.1896  162.3699 N.ar    1  UNL1       -0.1624
     11 C         142.0812  141.8201  161.8556 C.ar    1  UNL1        0.1367
     12 C         140.1638  139.7795  164.5436 C.ar    1  UNL1        0.1166
     13 C         139.5303  140.4561  165.7230 C.ar    1  UNL1        0.0231
     14 C         138.5601  139.7054  166.5863 C.ar    1  UNL1        0.0131
     15 C         138.2234  138.2783  166.2702 C.ar    1  UNL1        0.0608
     16 CL        137.2532  137.5277  167.1335 Cl      1  UNL1       -0.0821
     17 C         138.8569  137.6018  165.0908 C.ar    1  UNL1        0.0501
     18 C         139.8271  138.3524  164.2275 C.ar    1  UNL1        0.1651
     19 O         140.4606  137.6759  163.0481 O.3     1  UNL1       -0.4029
     20 C         139.9137  137.9033  161.6700 C.3     1  UNL1        0.5753
     21 F         139.3667  138.1306  160.2919 F       1  UNL1       -0.1328
     22 F         141.2953  138.2086  161.1720 F       1  UNL1       -0.1328
     23 F         138.5321  137.5979  162.1680 F       1  UNL1       -0.1328
     24 C         139.7395  143.2562  158.2155 C.3     1  UNL1        0.1547
     25 C         140.0645  143.7483  159.5947 C.3     1  UNL1        0.1235
     26 N         141.2836  142.8747  159.6191 N.pl3   1  UNL1       -0.2855
     27 C         140.9587  142.3826  158.2399 C.3     1  UNL1        0.1235
     28 C         137.4985  142.5704  157.0939 C.3     1  UNL1        0.1741
     29 O         138.6477  143.5259  157.2229 O.3     1  UNL1       -0.3501
@<TRIPOS>BOND
     1    28    29    1
     2    29    24    1
     3    24    25    1
     4    25    26    1
     5    26     1    1
     6     1     2   ar
     7     2     3   ar
     8     3     4   ar
     9     4     5    1
    10     4     6   ar
    11     6     7   ar
    12     7     8    1
    13     7     9   ar
    14     9    12    1
    15    12    13   ar
    16    13    14   ar
    17    14    15   ar
    18    15    16    1
    19    15    17   ar
    20    17    18   ar
    21    18    19    1
    22    19    20    1
    23    20    21    1
    24    20    22    1
    25    20    23    1
    26     9    10   ar
    27    10    11   ar
    28    26    27    1
    29    27    24    1
    30    11     1   ar
    31    11     6   ar
    32    18    12   ar
@<TRIPOS>MOLECULE
*****
 29 32 0 0 0
SMALL
GASTEIGER

@<TRIPOS>ATOM
      1 C         140.6589  140.2804  165.0478 C.ar    1  UNL1        0.1731
      2 N         139.9020  139.0514  165.4560 N.ar    1  UNL1       -0.1316
      3 N         139.0171  138.3524  164.4669 N.ar    1  UNL1       -0.1510
      4 C         138.8891  138.8825  163.0695 C.ar    1  UNL1        0.0836
      5 C         138.0041  138.1835  162.0804 C.3     1  UNL1        0.0541
      6 C         139.6459  140.1115  162.6613 C.ar    1  UNL1        0.0511
      7 C         139.7177  140.8614  161.3642 C.ar    1  UNL1        0.0637
      8 C         138.9883  140.5105  160.1014 C.3     1  UNL1        0.0522
      9 N         140.6471  142.0239  161.5517 N.ar    1  UNL1       -0.2306
     10 N         141.1496  141.9924  162.9646 N.ar    1  UNL1       -0.1624
     11 C         140.5308  140.8104  163.6504 C.ar    1  UNL1        0.1367
     12 C         141.0101  143.0395  160.5092 C.ar    1  UNL1        0.1166
     13 C         142.2284  142.8378  159.6577 C.ar    1  UNL1        0.0231
     14 C         142.5913  143.8534  158.6152 C.ar    1  UNL1        0.0131
     15 C         141.7360  145.0707  158.4242 C.ar    1  UNL1        0.0608
     16 CL        142.0991  146.0863  157.3817 Cl      1  UNL1       -0.0821
     17 C         140.5177  145.2725  159.2757 C.ar    1  UNL1        0.0501
     18 C         140.1548  144.2569  160.3182 C.ar    1  UNL1        0.1651
     19 O         138.9364  144.4586  161.1697 O.3     1  UNL1       -0.4029
     20 C         139.0838  144.8767  162.6027 C.3     1  UNL1        0.5753
     21 F         139.2312  145.2949  164.0356 F       1  UNL1       -0.1328
     22 F         138.3523  143.6418  163.0383 F       1  UNL1       -0.1328
     23 F         139.8153  146.1117  162.1671 F       1  UNL1       -0.1328
     24 C         142.7953  141.9680  167.4357 C.3     1  UNL1        0.1547
     25 C         142.7108  140.5742  166.8878 C.3     1  UNL1        0.1235
     26 N         141.5438  140.9794  166.0369 N.pl3   1  UNL1       -0.2855
     27 C         141.6283  142.3732  166.5848 C.3     1  UNL1        0.1235
     28 C         143.6656  142.2544  169.8669 C.3     1  UNL1        0.1741
     29 O         143.6801  142.6670  168.4248 O.3     1  UNL1       -0.3501
@<TRIPOS>BOND
     1    28    29    1
     2    29    24    1
     3    24    25    1
     4    25    26    1
     5    26     1    1
     6     1     2   ar
     7     2     3   ar
     8     3     4   ar
     9     4     5    1
    10     4     6   ar
    11     6     7   ar
    12     7     8    1
    13     7     9   ar
    14     9    12    1
    15    12    13   ar
    16    13    14   ar
    17    14    15   ar
    18    15    16    1
    19    15    17   ar
    20    17    18   ar
    21    18    19    1
    22    19    20    1
    23    20    21    1
    24    20    22    1
    25    20    23    1
    26     9    10   ar
    27    10    11   ar
    28    26    27    1
    29    27    24    1
    30    11     1   ar
    31    11     6   ar
    32    18    12   ar
@<TRIPOS>MOLECULE
*****
 29 32 0 0 0
SMALL
GASTEIGER

@<TRIPOS>ATOM
      1 C         139.7831  142.3651  159.6643 C.ar    1  UNL1        0.1731
      2 N         139.3353  143.7438  159.2792 N.ar    1  UNL1       -0.1316
      3 N         139.5739  144.8968  160.2085 N.ar    1  UNL1       -0.1510
      4 C         140.2604  144.6710  161.5229 C.ar    1  UNL1        0.0836
      5 C         140.4990  145.8241  162.4522 C.3     1  UNL1        0.0541
      6 C         140.7083  143.2923  161.9081 C.ar    1  UNL1        0.0511
      7 C         141.4049  142.7675  163.1284 C.ar    1  UNL1        0.0637
      8 C         141.8342  143.5778  164.3154 C.3     1  UNL1        0.0522
      9 N         141.5968  141.2901  162.9534 N.ar    1  UNL1       -0.2306
     10 N         141.0188  140.9019  161.6248 N.ar    1  UNL1       -0.1624
     11 C         140.4696  142.1393  160.9788 C.ar    1  UNL1        0.1367
     12 C         142.2518  140.3637  163.9347 C.ar    1  UNL1        0.1166
     13 C         143.7317  140.1280  163.8708 C.ar    1  UNL1        0.0231
     14 C         144.3866  139.2016  164.8520 C.ar    1  UNL1        0.0131
     15 C         143.5615  138.5110  165.8972 C.ar    1  UNL1        0.0608
     16 CL        144.2165  137.5846  166.8785 Cl      1  UNL1       -0.0821
     17 C         142.0816  138.7468  165.9611 C.ar    1  UNL1        0.0501
     18 C         141.4267  139.6731  164.9798 C.ar    1  UNL1        0.1651
     19 O         139.9467  139.9089  165.0436 O.3     1  UNL1       -0.4029
     20 C         139.1667  139.4593  166.2434 C.3     1  UNL1        0.5753
     21 F         138.3867  139.0098  167.4432 F       1  UNL1       -0.1328
     22 F         139.4801  140.7543  166.9325 F       1  UNL1       -0.1328
     23 F         138.8532  138.1643  165.5544 F       1  UNL1       -0.1328
     24 C         139.2071  139.5814  157.4207 C.3     1  UNL1        0.1547
     25 C         138.9840  139.8286  158.8833 C.3     1  UNL1        0.1235
     26 N         139.5445  141.2120  158.7350 N.pl3   1  UNL1       -0.2855
     27 C         139.7676  140.9648  157.2724 C.3     1  UNL1        0.1235
     28 C         139.9469  137.2926  156.4389 C.3     1  UNL1        0.1741
     29 O         138.9685  138.4284  156.4914 O.3     1  UNL1       -0.3501
@<TRIPOS>BOND
     1    28    29    1
     2    29    24    1
     3    24    25    1
     4    25    26    1
     5    26     1    1
     6     1     2   ar
     7     2     3   ar
     8     3     4   ar
     9     4     5    1
    10     4     6   ar
    11     6     7   ar
    12     7     8    1
    13     7     9   ar
    14     9    12    1
    15    12    13   ar
    16    13    14   ar
    17    14    15   ar
    18    15    16    1
    19    15    17   ar
    20    17    18   ar
    21    18    19    1
    22    19    20    1
    23    20    21    1
    24    20    22    1
    25    20    23    1
    26     9    10   ar
    27    10    11   ar
    28    26    27    1
    29    27    24    1
    30    11     1   ar
    31    11     6   ar
    32    18    12   ar
@<TRIPOS>MOLECULE
*****
 29 32 0 0 0
SMALL
GASTEIGER

@<TRIPOS>ATOM
      1 C         141.2843  141.9429  160.3753 C.ar    1  UNL1        0.1731
      2 N         140.9410  143.0848  159.4653 N.ar    1  UNL1       -0.1316
      3 N         140.4113  144.3663  160.0372 N.ar    1  UNL1       -0.1510
      4 C         140.2249  144.5059  161.5190 C.ar    1  UNL1        0.0836
      5 C         139.6951  145.7875  162.0908 C.3     1  UNL1        0.0541
      6 C         140.5682  143.3640  162.4289 C.ar    1  UNL1        0.0511
      7 C         140.4906  143.2095  163.9189 C.ar    1  UNL1        0.0637
      8 C         140.0148  144.2495  164.8895 C.3     1  UNL1        0.0522
      9 N         140.9724  141.8326  164.2680 N.ar    1  UNL1       -0.2306
     10 N         141.3478  141.1359  162.9937 N.ar    1  UNL1       -0.1624
     11 C         141.0979  142.0825  161.8571 C.ar    1  UNL1        0.1367
     12 C         141.0630  141.2538  165.6489 C.ar    1  UNL1        0.1166
     13 C         139.8130  140.8803  166.3891 C.ar    1  UNL1        0.0231
     14 C         139.9036  140.3016  167.7699 C.ar    1  UNL1        0.0131
     15 C         141.2442  140.0964  168.4107 C.ar    1  UNL1        0.0608
     16 CL        141.3348  139.5177  169.7916 Cl      1  UNL1       -0.0821
     17 C         142.4943  140.4700  167.6706 C.ar    1  UNL1        0.0501
     18 C         142.4036  141.0487  166.2897 C.ar    1  UNL1        0.1651
     19 O         143.6537  141.4222  165.5495 O.3     1  UNL1       -0.4029
     20 C         144.0389  142.8650  165.4083 C.3     1  UNL1        0.5753
     21 F         144.4240  144.3079  165.2670 F       1  UNL1       -0.1328
     22 F         144.0669  142.7115  163.9164 F       1  UNL1       -0.1328
     23 F         144.0109  143.0186  166.9001 F       1  UNL1       -0.1328
     24 C         142.5633  138.8489  158.9947 C.3     1  UNL1        0.1547
     25 C         141.3233  139.2453  159.7399 C.3     1  UNL1        0.1235
     26 N         141.8141  140.6613  159.8034 N.pl3   1  UNL1       -0.2855
     27 C         143.0541  140.2649  159.0582 C.3     1  UNL1        0.1235
     28 C         142.6093  137.0855  157.0873 C.3     1  UNL1        0.1741
     29 O         143.0931  137.5674  158.4229 O.3     1  UNL1       -0.3501
@<TRIPOS>BOND
     1    28    29    1
     2    29    24    1
     3    24    25    1
     4    25    26    1
     5    26     1    1
     6     1     2   ar
     7     2     3   ar
     8     3     4   ar
     9     4     5    1
    10     4     6   ar
    11     6     7   ar
    12     7     8    1
    13     7     9   ar
    14     9    12    1
    15    12    13   ar
    16    13    14   ar
    17    14    15   ar
    18    15    16    1
    19    15    17   ar
    20    17    18   ar
    21    18    19    1
    22    19    20    1
    23    20    21    1
    24    20    22    1
    25    20    23    1
    26     9    10   ar
    27    10    11   ar
    28    26    27    1
    29    27    24    1
    30    11     1   ar
    31    11     6   ar
    32    18    12   ar
@<TRIPOS>MOLECULE
*****
 29 32 0 0 0
SMALL
GASTEIGER

@<TRIPOS>ATOM
      1 C         142.4816  137.3791  156.7636 C.ar    1  UNL1        0.1731
      2 N         142.2910  138.1759  155.5072 N.ar    1  UNL1       -0.1316
      3 N         142.1574  139.6682  155.5786 N.ar    1  UNL1       -0.1510
      4 C         142.2144  140.3637  156.9065 C.ar    1  UNL1        0.0836
      5 C         142.0808  141.8560  156.9778 C.3     1  UNL1        0.0541
      6 C         142.4050  139.5668  158.1629 C.ar    1  UNL1        0.0511
      7 C         142.4996  139.9722  159.6039 C.ar    1  UNL1        0.0637
      8 C         142.4167  141.3734  160.1329 C.3     1  UNL1        0.0522
      9 N         142.6917  138.7304  160.4232 N.ar    1  UNL1       -0.2306
     10 N         142.7158  137.5575  159.4884 N.ar    1  UNL1       -0.1624
     11 C         142.5386  138.0745  158.0915 C.ar    1  UNL1        0.1367
     12 C         142.8346  138.6718  161.9153 C.ar    1  UNL1        0.1166
     13 C         144.0472  139.2574  162.5761 C.ar    1  UNL1        0.0231
     14 C         144.1901  139.1988  164.0681 C.ar    1  UNL1        0.0131
     15 C         143.1204  138.5547  164.8993 C.ar    1  UNL1        0.0608
     16 CL        143.2633  138.4961  166.3913 Cl      1  UNL1       -0.0821
     17 C         141.9078  137.9691  164.2384 C.ar    1  UNL1        0.0501
     18 C         141.7650  138.0277  162.7464 C.ar    1  UNL1        0.1651
     19 O         140.5523  137.4421  162.0855 O.3     1  UNL1       -0.4029
     20 C         139.2224  138.1226  162.2205 C.3     1  UNL1        0.5753
     21 F         137.8925  138.8030  162.3555 F       1  UNL1       -0.1328
     22 F         138.8114  137.1145  163.2524 F       1  UNL1       -0.1328
     23 F         139.6334  139.1306  161.1885 F       1  UNL1       -0.1328
     24 C         142.8040  133.7762  156.5913 C.3     1  UNL1        0.1547
     25 C         143.4900  134.8669  157.3593 C.3     1  UNL1        0.1235
     26 N         142.6152  135.8867  156.6923 N.pl3   1  UNL1       -0.2855
     27 C         141.9292  134.7959  155.9243 C.3     1  UNL1        0.1235
     28 C         143.9556  131.6647  155.6086 C.3     1  UNL1        0.1741
     29 O         142.9376  132.2839  156.5199 O.3     1  UNL1       -0.3501
@<TRIPOS>BOND
     1    28    29    1
     2    29    24    1
     3    24    25    1
     4    25    26    1
     5    26     1    1
     6     1     2   ar
     7     2     3   ar
     8     3     4   ar
     9     4     5    1
    10     4     6   ar
    11     6     7   ar
    12     7     8    1
    13     7     9   ar
    14     9    12    1
    15    12    13   ar
    16    13    14   ar
    17    14    15   ar
    18    15    16    1
    19    15    17   ar
    20    17    18   ar
    21    18    19    1
    22    19    20    1
    23    20    21    1
    24    20    22    1
    25    20    23    1
    26     9    10   ar
    27    10    11   ar
    28    26    27    1
    29    27    24    1
    30    11     1   ar
    31    11     6   ar
    32    18    12   ar
