@<TRIPOS>MOLECULE
*****
 33 36 0 0 0
SMALL
GASTEIGER

@<TRIPOS>ATOM
      1 N         138.8745  140.1611  165.8048 N.3     1  UNL1       -0.2691
      2 C         138.0921  140.9352  164.7856 C.3     1  UNL1        0.0724
      3 C         138.5426  142.3065  164.3775 C.3     1  UNL1        0.0188
      4 C         139.7755  142.9037  164.9885 C.3     1  UNL1        0.0188
      5 C         140.5579  142.1296  166.0077 C.3     1  UNL1        0.0188
      6 C         140.1074  140.7583  166.4159 C.3     1  UNL1        0.0724
      7 C         138.4240  138.7898  166.2129 C.3     1  UNL1        0.0987
      8 O         138.1625  139.3899  168.7272 O.co2   1  UNL1       -0.5478
      9 C         137.7405  138.5867  167.5327 C.2     1  UNL1        0.0652
     10 O         136.6353  137.5804  167.6579 O.co2   1  UNL1       -0.5478
     11 C         138.6568  137.6216  165.3013 C.3     1  UNL1        0.0480
     12 C         139.6137  137.7456  164.1527 C.ar    1  UNL1       -0.0205
     13 C         139.0922  137.9390  162.7597 C.ar    1  UNL1       -0.0042
     14 C         140.0490  138.0630  161.6112 C.ar    1  UNL1       -0.0003
     15 C         141.5273  137.9935  161.8557 C.ar    1  UNL1       -0.0000
     16 C         142.0488  137.8001  163.2488 C.ar    1  UNL1       -0.0003
     17 C         141.0920  137.6761  164.3973 C.ar    1  UNL1       -0.0042
     18 C         140.2260  144.2750  164.5804 C.3     1  UNL1        0.0721
     19 N         140.5703  144.5559  163.1478 N.3     1  UNL1       -0.2724
     20 C         139.7481  145.5289  162.3556 C.3     1  UNL1        0.0758
     21 C         140.0924  145.8098  160.9230 C.3     1  UNL1        0.0609
     22 C         141.2589  145.1178  160.2824 C.3     1  UNL1        0.1687
     23 C         142.0811  144.1448  161.0745 C.3     1  UNL1        0.0609
     24 C         141.7368  143.8639  162.5072 C.3     1  UNL1        0.0758
     25 O         141.6032  145.3986  158.8498 O.3     1  UNL1       -0.4790
     26 C         140.5588  145.2472  157.7838 C.ar    1  UNL1        0.1393
     27 C         139.8968  143.9190  157.5657 C.ar    1  UNL1        0.0378
     28 C         138.8525  143.7675  156.4997 C.ar    1  UNL1        0.0154
     29 C         138.4700  144.9443  155.6518 C.ar    1  UNL1        0.0684
     30 CL        137.4256  144.7929  154.5859 Cl      1  UNL1       -0.0814
     31 C         139.1319  146.2726  155.8699 C.ar    1  UNL1        0.0712
     32 CL        138.7495  147.4494  155.0221 Cl      1  UNL1       -0.0813
     33 C         140.1763  146.4240  156.9359 C.ar    1  UNL1        0.0491
@<TRIPOS>UNITY_ATOM_ATTR
8 1
charge -1
@<TRIPOS>BOND
     1     8     9   ar
     2     9    10   ar
     3     9     7    1
     4     7    11    1
     5    11    12    1
     6    12    13   ar
     7    13    14   ar
     8    14    15   ar
     9    15    16   ar
    10    16    17   ar
    11     7     1    1
    12     1     2    1
    13     2     3    1
    14     3     4    1
    15     4    18    1
    16    18    19    1
    17    19    20    1
    18    20    21    1
    19    21    22    1
    20    22    25    1
    21    25    26    1
    22    26    27   ar
    23    27    28   ar
    24    28    29   ar
    25    29    30    1
    26    29    31   ar
    27    31    32    1
    28    31    33   ar
    29    22    23    1
    30    23    24    1
    31     4     5    1
    32     5     6    1
    33    17    12   ar
    34     6     1    1
    35    24    19    1
    36    33    26   ar
@<TRIPOS>MOLECULE
*****
 33 36 0 0 0
SMALL
GASTEIGER

@<TRIPOS>ATOM
      1 N         138.3888  139.9083  164.9518 N.3     1  UNL1       -0.2691
      2 C         137.7067  139.8433  163.6175 C.3     1  UNL1        0.0724
      3 C         137.5318  141.0907  162.8030 C.3     1  UNL1        0.0188
      4 C         138.0391  142.4031  163.3228 C.3     1  UNL1        0.0188
      5 C         138.7213  142.4682  164.6571 C.3     1  UNL1        0.0188
      6 C         138.8962  141.2208  165.4717 C.3     1  UNL1        0.0724
      7 C         138.5637  138.6609  165.7663 C.3     1  UNL1        0.0987
      8 O         138.5055  139.3938  168.2583 O.co2   1  UNL1       -0.5478
      9 C         137.9552  138.5670  167.1342 C.2     1  UNL1        0.0652
     10 O         136.7964  137.6462  167.3780 O.co2   1  UNL1       -0.5478
     11 C         139.3470  137.5076  165.2131 C.3     1  UNL1        0.0480
     12 C         140.5740  137.7611  164.3883 C.ar    1  UNL1       -0.0205
     13 C         140.5806  137.4171  162.9283 C.ar    1  UNL1       -0.0042
     14 C         141.8076  137.6706  162.1036 C.ar    1  UNL1       -0.0003
     15 C         143.0280  138.2682  162.7389 C.ar    1  UNL1       -0.0000
     16 C         143.0214  138.6122  164.1989 C.ar    1  UNL1       -0.0003
     17 C         141.7944  138.3587  165.0236 C.ar    1  UNL1       -0.0042
     18 C         137.8643  143.6505  162.5082 C.3     1  UNL1        0.0721
     19 N         138.9295  144.0685  161.5385 N.3     1  UNL1       -0.2724
     20 C         139.7573  145.2888  161.8137 C.3     1  UNL1        0.0758
     21 C         140.8226  145.7068  160.8439 C.3     1  UNL1        0.0609
     22 C         141.0601  144.9045  159.5990 C.3     1  UNL1        0.1687
     23 C         140.2325  143.6842  159.3238 C.3     1  UNL1        0.0609
     24 C         139.1671  143.2662  160.2936 C.3     1  UNL1        0.0758
     25 O         142.1254  145.3225  158.6293 O.3     1  UNL1       -0.4790
     26 C         141.8202  145.3880  157.1621 C.ar    1  UNL1        0.1393
     27 C         142.4536  144.4078  156.2197 C.ar    1  UNL1        0.0378
     28 C         142.1484  144.4733  154.7526 C.ar    1  UNL1        0.0154
     29 C         141.2097  145.5191  154.2277 C.ar    1  UNL1        0.0684
     30 CL        140.9045  145.5846  152.7606 Cl      1  UNL1       -0.0814
     31 C         140.5763  146.4993  155.1701 C.ar    1  UNL1        0.0712
     32 CL        139.6377  147.5450  154.6453 Cl      1  UNL1       -0.0813
     33 C         140.8816  146.4338  156.6373 C.ar    1  UNL1        0.0491
@<TRIPOS>UNITY_ATOM_ATTR
8 1
charge -1
@<TRIPOS>BOND
     1     8     9   ar
     2     9    10   ar
     3     9     7    1
     4     7    11    1
     5    11    12    1
     6    12    13   ar
     7    13    14   ar
     8    14    15   ar
     9    15    16   ar
    10    16    17   ar
    11     7     1    1
    12     1     2    1
    13     2     3    1
    14     3     4    1
    15     4    18    1
    16    18    19    1
    17    19    20    1
    18    20    21    1
    19    21    22    1
    20    22    25    1
    21    25    26    1
    22    26    27   ar
    23    27    28   ar
    24    28    29   ar
    25    29    30    1
    26    29    31   ar
    27    31    32    1
    28    31    33   ar
    29    22    23    1
    30    23    24    1
    31     4     5    1
    32     5     6    1
    33    17    12   ar
    34     6     1    1
    35    24    19    1
    36    33    26   ar
@<TRIPOS>MOLECULE
*****
 33 36 0 0 0
SMALL
GASTEIGER

@<TRIPOS>ATOM
      1 N         139.8435  141.4827  166.9978 N.3     1  UNL1       -0.2691
      2 C         139.1648  140.5644  166.0252 C.3     1  UNL1        0.0724
      3 C         138.5849  141.1130  164.7552 C.3     1  UNL1        0.0188
      4 C         138.6838  142.5799  164.4579 C.3     1  UNL1        0.0188
      5 C         139.3626  143.4982  165.4305 C.3     1  UNL1        0.0188
      6 C         139.9425  142.9496  166.7005 C.3     1  UNL1        0.0724
      7 C         140.4234  140.9340  168.2677 C.3     1  UNL1        0.0987
      8 O         138.4682  139.5903  169.3269 O.co2   1  UNL1       -0.5478
      9 C         139.5293  140.6449  169.4369 C.2     1  UNL1        0.0652
     10 O         139.6962  141.4102  170.7161 O.co2   1  UNL1       -0.5478
     11 C         141.8973  140.6746  168.3685 C.3     1  UNL1        0.0480
     12 C         142.6797  140.3070  167.1426 C.ar    1  UNL1       -0.0205
     13 C         143.1210  141.3749  166.1862 C.ar    1  UNL1       -0.0042
     14 C         143.9033  141.0072  164.9604 C.ar    1  UNL1       -0.0003
     15 C         144.2444  139.5716  164.6910 C.ar    1  UNL1       -0.0000
     16 C         143.8032  138.5036  165.6474 C.ar    1  UNL1       -0.0003
     17 C         143.0209  138.8713  166.8732 C.ar    1  UNL1       -0.0042
     18 C         138.1039  143.1285  163.1879 C.3     1  UNL1        0.0721
     19 N         138.9944  143.8027  162.1867 N.3     1  UNL1       -0.2724
     20 C         139.5821  143.0137  161.0544 C.3     1  UNL1        0.0758
     21 C         140.4725  143.6879  160.0532 C.3     1  UNL1        0.0609
     22 C         140.7753  145.1512  160.1843 C.3     1  UNL1        0.1687
     23 C         140.1877  145.9402  161.3165 C.3     1  UNL1        0.0609
     24 C         139.2972  145.2660  162.3178 C.3     1  UNL1        0.0758
     25 O         141.6658  145.8254  159.1831 O.3     1  UNL1       -0.4790
     26 C         141.3629  145.7183  157.7178 C.ar    1  UNL1        0.1393
     27 C         142.3593  145.0888  156.7900 C.ar    1  UNL1        0.0378
     28 C         142.0564  144.9817  155.3249 C.ar    1  UNL1        0.0154
     29 C         140.7570  145.5041  154.7874 C.ar    1  UNL1        0.0684
     30 CL        140.4541  145.3970  153.3223 Cl      1  UNL1       -0.0814
     31 C         139.7606  146.1336  155.7152 C.ar    1  UNL1        0.0712
     32 CL        138.4612  146.6560  155.1779 Cl      1  UNL1       -0.0813
     33 C         140.0635  146.2407  157.1805 C.ar    1  UNL1        0.0491
@<TRIPOS>UNITY_ATOM_ATTR
8 1
charge -1
@<TRIPOS>BOND
     1     8     9   ar
     2     9    10   ar
     3     9     7    1
     4     7    11    1
     5    11    12    1
     6    12    13   ar
     7    13    14   ar
     8    14    15   ar
     9    15    16   ar
    10    16    17   ar
    11     7     1    1
    12     1     2    1
    13     2     3    1
    14     3     4    1
    15     4    18    1
    16    18    19    1
    17    19    20    1
    18    20    21    1
    19    21    22    1
    20    22    25    1
    21    25    26    1
    22    26    27   ar
    23    27    28   ar
    24    28    29   ar
    25    29    30    1
    26    29    31   ar
    27    31    32    1
    28    31    33   ar
    29    22    23    1
    30    23    24    1
    31     4     5    1
    32     5     6    1
    33    17    12   ar
    34     6     1    1
    35    24    19    1
    36    33    26   ar
@<TRIPOS>MOLECULE
*****
 33 36 0 0 0
SMALL
GASTEIGER

@<TRIPOS>ATOM
      1 N         142.8920  140.6511  166.9853 N.3     1  UNL1       -0.2691
      2 C         143.3448  141.6176  165.9314 C.3     1  UNL1        0.0724
      3 C         143.9265  141.1077  164.6463 C.3     1  UNL1        0.0188
      4 C         144.0554  139.6313  164.4151 C.3     1  UNL1        0.0188
      5 C         143.6026  138.6647  165.4690 C.3     1  UNL1        0.0188
      6 C         143.0209  139.1746  166.7541 C.3     1  UNL1        0.0724
      7 C         142.3102  141.1610  168.2705 C.3     1  UNL1        0.0987
      8 O         143.3879  140.3180  170.4791 O.co2   1  UNL1       -0.5478
      9 C         143.2000  141.3975  169.4548 C.2     1  UNL1        0.0652
     10 O         143.9017  142.7135  169.6147 O.co2   1  UNL1       -0.5478
     11 C         140.8388  141.4344  168.3713 C.3     1  UNL1        0.0480
     12 C         139.9131  140.9670  167.2875 C.ar    1  UNL1       -0.0205
     13 C         139.6709  141.8295  166.0845 C.ar    1  UNL1       -0.0042
     14 C         138.7452  141.3621  165.0007 C.ar    1  UNL1       -0.0003
     15 C         138.0617  140.0322  165.1200 C.ar    1  UNL1       -0.0000
     16 C         138.3039  139.1697  166.3231 C.ar    1  UNL1       -0.0003
     17 C         139.2296  139.6371  167.4068 C.ar    1  UNL1       -0.0042
     18 C         144.6372  139.1214  163.1299 C.3     1  UNL1        0.0721
     19 N         143.7792  139.0283  161.9031 N.3     1  UNL1       -0.2724
     20 C         144.1003  139.8621  160.6982 C.3     1  UNL1        0.0758
     21 C         143.2423  139.7690  159.4714 C.3     1  UNL1        0.0609
     22 C         142.0632  138.8421  159.4493 C.3     1  UNL1        0.1687
     23 C         141.7421  138.0082  160.6541 C.3     1  UNL1        0.0609
     24 C         142.6001  138.1013  161.8810 C.3     1  UNL1        0.0758
     25 O         141.2052  138.7490  158.2225 O.3     1  UNL1       -0.4790
     26 C         141.3801  137.6033  157.2701 C.ar    1  UNL1        0.1393
     27 C         140.3431  137.3362  156.2198 C.ar    1  UNL1        0.0378
     28 C         140.5179  136.1906  155.2674 C.ar    1  UNL1        0.0154
     29 C         141.7298  135.3121  155.3654 C.ar    1  UNL1        0.0684
     30 CL        141.9046  134.1665  154.4130 Cl      1  UNL1       -0.0814
     31 C         142.7668  135.5792  156.4158 C.ar    1  UNL1        0.0712
     32 CL        143.9787  134.7007  156.5138 Cl      1  UNL1       -0.0813
     33 C         142.5919  136.7248  157.3681 C.ar    1  UNL1        0.0491
@<TRIPOS>UNITY_ATOM_ATTR
8 1
charge -1
@<TRIPOS>BOND
     1     8     9   ar
     2     9    10   ar
     3     9     7    1
     4     7    11    1
     5    11    12    1
     6    12    13   ar
     7    13    14   ar
     8    14    15   ar
     9    15    16   ar
    10    16    17   ar
    11     7     1    1
    12     1     2    1
    13     2     3    1
    14     3     4    1
    15     4    18    1
    16    18    19    1
    17    19    20    1
    18    20    21    1
    19    21    22    1
    20    22    25    1
    21    25    26    1
    22    26    27   ar
    23    27    28   ar
    24    28    29   ar
    25    29    30    1
    26    29    31   ar
    27    31    32    1
    28    31    33   ar
    29    22    23    1
    30    23    24    1
    31     4     5    1
    32     5     6    1
    33    17    12   ar
    34     6     1    1
    35    24    19    1
    36    33    26   ar
@<TRIPOS>MOLECULE
*****
 33 36 0 0 0
SMALL
GASTEIGER

@<TRIPOS>ATOM
      1 N         141.3578  140.1931  166.6418 N.3     1  UNL1       -0.2691
      2 C         141.5660  141.4743  165.8901 C.3     1  UNL1        0.0724
      3 C         142.7313  141.6151  164.9562 C.3     1  UNL1        0.0188
      4 C         143.6885  140.4747  164.7741 C.3     1  UNL1        0.0188
      5 C         143.4803  139.1934  165.5259 C.3     1  UNL1        0.0188
      6 C         142.3150  139.0526  166.4597 C.3     1  UNL1        0.0724
      7 C         140.1924  140.0523  167.5757 C.3     1  UNL1        0.0987
      8 O         140.2160  141.9471  169.3533 O.co2   1  UNL1       -0.5478
      9 C         140.3188  140.4918  169.0044 C.2     1  UNL1        0.0652
     10 O         140.5480  139.4761  170.0840 O.co2   1  UNL1       -0.5478
     11 C         138.9007  139.4721  167.0810 C.3     1  UNL1        0.0480
     12 C         138.6953  139.2422  165.6130 C.ar    1  UNL1       -0.0205
     13 C         138.2037  140.3588  164.7405 C.ar    1  UNL1       -0.0042
     14 C         137.9983  140.1288  163.2725 C.ar    1  UNL1       -0.0003
     15 C         138.2845  138.7821  162.6771 C.ar    1  UNL1       -0.0000
     16 C         138.7761  137.6655  163.5496 C.ar    1  UNL1       -0.0003
     17 C         138.9815  137.8955  165.0176 C.ar    1  UNL1       -0.0042
     18 C         144.8539  140.6154  163.8402 C.3     1  UNL1        0.0721
     19 N         144.6211  140.9341  162.3931 N.3     1  UNL1       -0.2724
     20 C         144.1480  139.8626  161.4559 C.3     1  UNL1        0.0758
     21 C         143.9152  140.1813  160.0088 C.3     1  UNL1        0.0609
     22 C         144.1555  141.5713  159.4988 C.3     1  UNL1        0.1687
     23 C         144.6286  142.6427  160.4359 C.3     1  UNL1        0.0609
     24 C         144.8614  142.3241  161.8831 C.3     1  UNL1        0.0758
     25 O         143.9227  141.8899  158.0516 O.3     1  UNL1       -0.4790
     26 C         145.0680  141.8600  157.0834 C.ar    1  UNL1        0.1393
     27 C         146.3667  142.5221  157.4371 C.ar    1  UNL1        0.0378
     28 C         147.5119  142.4921  156.4689 C.ar    1  UNL1        0.0154
     29 C         147.3586  141.8000  155.1469 C.ar    1  UNL1        0.0684
     30 CL        148.5039  141.7701  154.1788 Cl      1  UNL1       -0.0814
     31 C         146.0600  141.1379  154.7932 C.ar    1  UNL1        0.0712
     32 CL        145.9066  140.4459  153.4713 Cl      1  UNL1       -0.0813
     33 C         144.9146  141.1679  155.7615 C.ar    1  UNL1        0.0491
@<TRIPOS>UNITY_ATOM_ATTR
8 1
charge -1
@<TRIPOS>BOND
     1     8     9   ar
     2     9    10   ar
     3     9     7    1
     4     7    11    1
     5    11    12    1
     6    12    13   ar
     7    13    14   ar
     8    14    15   ar
     9    15    16   ar
    10    16    17   ar
    11     7     1    1
    12     1     2    1
    13     2     3    1
    14     3     4    1
    15     4    18    1
    16    18    19    1
    17    19    20    1
    18    20    21    1
    19    21    22    1
    20    22    25    1
    21    25    26    1
    22    26    27   ar
    23    27    28   ar
    24    28    29   ar
    25    29    30    1
    26    29    31   ar
    27    31    32    1
    28    31    33   ar
    29    22    23    1
    30    23    24    1
    31     4     5    1
    32     5     6    1
    33    17    12   ar
    34     6     1    1
    35    24    19    1
    36    33    26   ar
@<TRIPOS>MOLECULE
*****
 33 36 0 0 0
SMALL
GASTEIGER

@<TRIPOS>ATOM
      1 N         140.7383  140.4757  167.2872 N.3     1  UNL1       -0.2691
      2 C         140.8480  141.9451  167.0062 C.3     1  UNL1        0.0724
      3 C         142.0086  142.4730  166.2161 C.3     1  UNL1        0.0188
      4 C         143.0595  141.5316  165.7068 C.3     1  UNL1        0.0188
      5 C         142.9498  140.0622  165.9878 C.3     1  UNL1        0.0188
      6 C         141.7892  139.5342  166.7780 C.3     1  UNL1        0.0724
      7 C         139.5777  139.9478  168.0774 C.3     1  UNL1        0.0987
      8 O         138.4591  140.8528  170.2406 O.co2   1  UNL1       -0.5478
      9 C         139.5617  140.0875  169.5708 C.2     1  UNL1        0.0652
     10 O         140.6481  139.4620  170.3943 O.co2   1  UNL1       -0.5478
     11 C         138.4333  139.2802  167.3742 C.3     1  UNL1        0.0480
     12 C         138.4587  139.1226  165.8826 C.ar    1  UNL1       -0.0205
     13 C         138.0733  140.2726  165.0002 C.ar    1  UNL1       -0.0042
     14 C         138.0987  140.1149  163.5088 C.ar    1  UNL1       -0.0003
     15 C         138.5095  138.8071  162.8998 C.ar    1  UNL1       -0.0000
     16 C         138.8949  137.6570  163.7822 C.ar    1  UNL1       -0.0003
     17 C         138.8695  137.8148  165.2736 C.ar    1  UNL1       -0.0042
     18 C         144.2200  142.0595  164.9167 C.3     1  UNL1        0.0721
     19 N         144.0614  142.3492  163.4535 N.3     1  UNL1       -0.2724
     20 C         143.3538  143.5945  163.0079 C.3     1  UNL1        0.0758
     21 C         143.1952  143.8842  161.5447 C.3     1  UNL1        0.0609
     22 C         143.7442  142.9286  160.5271 C.3     1  UNL1        0.1687
     23 C         144.4518  141.6833  160.9727 C.3     1  UNL1        0.0609
     24 C         144.6104  141.3936  162.4359 C.3     1  UNL1        0.0758
     25 O         143.5856  143.2183  159.0640 O.3     1  UNL1       -0.4790
     26 C         144.0126  142.2012  158.0474 C.ar    1  UNL1        0.1393
     27 C         143.1141  141.0457  157.7194 C.ar    1  UNL1        0.0378
     28 C         143.5411  140.0287  156.7029 C.ar    1  UNL1        0.0154
     29 C         144.8665  140.1671  156.0144 C.ar    1  UNL1        0.0684
     30 CL        145.2935  139.1501  154.9979 Cl      1  UNL1       -0.0814
     31 C         145.7650  141.3226  156.3423 C.ar    1  UNL1        0.0712
     32 CL        147.0904  141.4611  155.6538 Cl      1  UNL1       -0.0813
     33 C         145.3380  142.3397  157.3589 C.ar    1  UNL1        0.0491
@<TRIPOS>UNITY_ATOM_ATTR
8 1
charge -1
@<TRIPOS>BOND
     1     8     9   ar
     2     9    10   ar
     3     9     7    1
     4     7    11    1
     5    11    12    1
     6    12    13   ar
     7    13    14   ar
     8    14    15   ar
     9    15    16   ar
    10    16    17   ar
    11     7     1    1
    12     1     2    1
    13     2     3    1
    14     3     4    1
    15     4    18    1
    16    18    19    1
    17    19    20    1
    18    20    21    1
    19    21    22    1
    20    22    25    1
    21    25    26    1
    22    26    27   ar
    23    27    28   ar
    24    28    29   ar
    25    29    30    1
    26    29    31   ar
    27    31    32    1
    28    31    33   ar
    29    22    23    1
    30    23    24    1
    31     4     5    1
    32     5     6    1
    33    17    12   ar
    34     6     1    1
    35    24    19    1
    36    33    26   ar
@<TRIPOS>MOLECULE
*****
 33 36 0 0 0
SMALL
GASTEIGER

@<TRIPOS>ATOM
      1 N         141.8960  140.7678  166.8985 N.3     1  UNL1       -0.2691
      2 C         142.7119  141.9560  166.4834 C.3     1  UNL1        0.0724
      3 C         142.0639  143.0902  165.7460 C.3     1  UNL1        0.0188
      4 C         140.6000  143.0360  165.4236 C.3     1  UNL1        0.0188
      5 C         139.7840  141.8477  165.8386 C.3     1  UNL1        0.0188
      6 C         140.4320  140.7136  166.5761 C.3     1  UNL1        0.0724
      7 C         142.5441  139.6336  167.6359 C.3     1  UNL1        0.0987
      8 O         141.9683  140.7618  169.9044 O.co2   1  UNL1       -0.5478
      9 C         142.4902  139.5851  169.1342 C.2     1  UNL1        0.0652
     10 O         142.9582  138.3601  169.8622 O.co2   1  UNL1       -0.5478
     11 C         143.2459  138.5481  166.8751 C.3     1  UNL1        0.0480
     12 C         143.0946  138.4578  165.3855 C.ar    1  UNL1       -0.0205
     13 C         141.9209  137.7356  164.7932 C.ar    1  UNL1       -0.0042
     14 C         141.7696  137.6454  163.3037 C.ar    1  UNL1       -0.0003
     15 C         142.7920  138.2774  162.4063 C.ar    1  UNL1       -0.0000
     16 C         143.9656  138.9997  162.9985 C.ar    1  UNL1       -0.0003
     17 C         144.1169  139.0899  164.4881 C.ar    1  UNL1       -0.0042
     18 C         139.9520  144.1702  164.6862 C.3     1  UNL1        0.0721
     19 N         140.3532  144.4724  163.2728 N.3     1  UNL1       -0.2724
     20 C         139.6460  145.5508  162.5066 C.3     1  UNL1        0.0758
     21 C         140.0472  145.8530  161.0933 C.3     1  UNL1        0.0609
     22 C         141.1556  145.0768  160.4460 C.3     1  UNL1        0.1687
     23 C         141.8628  143.9984  161.2120 C.3     1  UNL1        0.0609
     24 C         141.4616  143.6962  162.6255 C.3     1  UNL1        0.0758
     25 O         141.5568  145.3790  159.0326 O.3     1  UNL1       -0.4790
     26 C         140.5562  145.2428  157.9234 C.ar    1  UNL1        0.1393
     27 C         139.9052  143.9174  157.6592 C.ar    1  UNL1        0.0378
     28 C         138.9047  143.7812  156.5501 C.ar    1  UNL1        0.0154
     29 C         138.5549  144.9702  155.7051 C.ar    1  UNL1        0.0684
     30 CL        137.5543  144.8339  154.5960 Cl      1  UNL1       -0.0814
     31 C         139.2059  146.2955  155.9693 C.ar    1  UNL1        0.0712
     32 CL        138.8562  147.4846  155.1244 Cl      1  UNL1       -0.0813
     33 C         140.2065  146.4318  157.0785 C.ar    1  UNL1        0.0491
@<TRIPOS>UNITY_ATOM_ATTR
8 1
charge -1
@<TRIPOS>BOND
     1     8     9   ar
     2     9    10   ar
     3     9     7    1
     4     7    11    1
     5    11    12    1
     6    12    13   ar
     7    13    14   ar
     8    14    15   ar
     9    15    16   ar
    10    16    17   ar
    11     7     1    1
    12     1     2    1
    13     2     3    1
    14     3     4    1
    15     4    18    1
    16    18    19    1
    17    19    20    1
    18    20    21    1
    19    21    22    1
    20    22    25    1
    21    25    26    1
    22    26    27   ar
    23    27    28   ar
    24    28    29   ar
    25    29    30    1
    26    29    31   ar
    27    31    32    1
    28    31    33   ar
    29    22    23    1
    30    23    24    1
    31     4     5    1
    32     5     6    1
    33    17    12   ar
    34     6     1    1
    35    24    19    1
    36    33    26   ar
@<TRIPOS>MOLECULE
*****
 33 36 0 0 0
SMALL
GASTEIGER

@<TRIPOS>ATOM
      1 N         140.1446  140.1425  166.9297 N.3     1  UNL1       -0.2691
      2 C         141.4049  139.4741  166.4663 C.3     1  UNL1        0.0724
      3 C         141.3636  138.5083  165.3193 C.3     1  UNL1        0.0188
      4 C         140.0620  138.2108  164.6358 C.3     1  UNL1        0.0188
      5 C         138.8015  138.8792  165.0993 C.3     1  UNL1        0.0188
      6 C         138.8428  139.8450  166.2462 C.3     1  UNL1        0.0724
      7 C         140.1859  141.1083  168.0767 C.3     1  UNL1        0.0987
      8 O         138.8490  141.3523  170.2910 O.co2   1  UNL1       -0.5478
      9 C         139.8770  140.6359  169.4665 C.2     1  UNL1        0.0652
     10 O         140.5961  139.4470  170.0317 O.co2   1  UNL1       -0.5478
     11 C         140.5360  142.5464  167.8339 C.3     1  UNL1        0.0480
     12 C         140.5185  143.0975  166.4388 C.ar    1  UNL1       -0.0205
     13 C         139.3122  143.8357  165.9391 C.ar    1  UNL1       -0.0042
     14 C         139.2947  144.3866  164.5441 C.ar    1  UNL1       -0.0003
     15 C         140.4835  144.1994  163.6488 C.ar    1  UNL1       -0.0000
     16 C         141.6899  143.4612  164.1485 C.ar    1  UNL1       -0.0003
     17 C         141.7074  142.9102  165.5435 C.ar    1  UNL1       -0.0042
     18 C         140.0207  137.2450  163.4889 C.3     1  UNL1        0.0721
     19 N         140.4404  137.6890  162.1190 N.3     1  UNL1       -0.2724
     20 C         139.4048  138.0876  161.1096 C.3     1  UNL1        0.0758
     21 C         139.8245  138.5316  159.7397 C.3     1  UNL1        0.0609
     22 C         141.2798  138.5771  159.3791 C.3     1  UNL1        0.1687
     23 C         142.3154  138.1786  160.3884 C.3     1  UNL1        0.0609
     24 C         141.8957  137.7346  161.7584 C.3     1  UNL1        0.0758
     25 O         141.6995  139.0211  158.0092 O.3     1  UNL1       -0.4790
     26 C         141.8444  138.0149  156.9062 C.ar    1  UNL1        0.1393
     27 C         141.0381  138.1585  155.6495 C.ar    1  UNL1        0.0378
     28 C         141.1829  137.1523  154.5465 C.ar    1  UNL1        0.0154
     29 C         142.1340  136.0025  154.7002 C.ar    1  UNL1        0.0684
     30 CL        142.2788  134.9964  153.5972 Cl      1  UNL1       -0.0814
     31 C         142.9403  135.8590  155.9569 C.ar    1  UNL1        0.0712
     32 CL        143.8913  134.7093  156.1107 Cl      1  UNL1       -0.0813
     33 C         142.7954  136.8652  157.0599 C.ar    1  UNL1        0.0491
@<TRIPOS>UNITY_ATOM_ATTR
8 1
charge -1
@<TRIPOS>BOND
     1     8     9   ar
     2     9    10   ar
     3     9     7    1
     4     7    11    1
     5    11    12    1
     6    12    13   ar
     7    13    14   ar
     8    14    15   ar
     9    15    16   ar
    10    16    17   ar
    11     7     1    1
    12     1     2    1
    13     2     3    1
    14     3     4    1
    15     4    18    1
    16    18    19    1
    17    19    20    1
    18    20    21    1
    19    21    22    1
    20    22    25    1
    21    25    26    1
    22    26    27   ar
    23    27    28   ar
    24    28    29   ar
    25    29    30    1
    26    29    31   ar
    27    31    32    1
    28    31    33   ar
    29    22    23    1
    30    23    24    1
    31     4     5    1
    32     5     6    1
    33    17    12   ar
    34     6     1    1
    35    24    19    1
    36    33    26   ar
@<TRIPOS>MOLECULE
*****
 33 36 0 0 0
SMALL
GASTEIGER

@<TRIPOS>ATOM
      1 N         140.2395  139.4296  165.0088 N.3     1  UNL1       -0.2691
      2 C         140.0271  140.6337  164.1398 C.3     1  UNL1        0.0724
      3 C         139.6657  140.4611  162.6943 C.3     1  UNL1        0.0188
      4 C         139.5166  139.0844  162.1177 C.3     1  UNL1        0.0188
      5 C         139.7290  137.8802  162.9866 C.3     1  UNL1        0.0188
      6 C         140.0905  138.0528  164.4321 C.3     1  UNL1        0.0724
      7 C         140.6010  139.6022  166.4543 C.3     1  UNL1        0.0987
      8 O         138.3321  138.9241  167.5233 O.co2   1  UNL1       -0.5478
      9 C         139.5252  139.8319  167.4741 C.2     1  UNL1        0.0652
     10 O         139.6425  140.9695  168.4447 O.co2   1  UNL1       -0.5478
     11 C         142.0381  139.5450  166.8800 C.3     1  UNL1        0.0480
     12 C         143.1183  139.9802  165.9345 C.ar    1  UNL1       -0.0205
     13 C         143.9763  138.9556  165.2533 C.ar    1  UNL1       -0.0042
     14 C         145.0564  139.3907  164.3079 C.ar    1  UNL1       -0.0003
     15 C         145.2786  140.8505  164.0437 C.ar    1  UNL1       -0.0000
     16 C         144.4207  141.8750  164.7249 C.ar    1  UNL1       -0.0003
     17 C         143.3405  141.4399  165.6703 C.ar    1  UNL1       -0.0042
     18 C         139.1552  138.9118  160.6722 C.3     1  UNL1        0.0721
     19 N         140.2012  138.4922  159.6824 N.3     1  UNL1       -0.2724
     20 C         139.8278  138.2648  158.2475 C.3     1  UNL1        0.0758
     21 C         140.8739  137.8451  157.2578 C.3     1  UNL1        0.0609
     22 C         142.2934  137.6529  157.7029 C.3     1  UNL1        0.1687
     23 C         142.6668  137.8803  159.1377 C.3     1  UNL1        0.0609
     24 C         141.6207  138.3000  160.1275 C.3     1  UNL1        0.0758
     25 O         143.3395  137.2333  156.7132 O.3     1  UNL1       -0.4790
     26 C         143.2682  135.8770  156.0762 C.ar    1  UNL1        0.1393
     27 C         142.7361  135.7305  154.6814 C.ar    1  UNL1        0.0378
     28 C         142.6649  134.3744  154.0445 C.ar    1  UNL1        0.0154
     29 C         143.1258  133.1647  154.8023 C.ar    1  UNL1        0.0684
     30 CL        143.0545  131.8085  154.1653 Cl      1  UNL1       -0.0814
     31 C         143.6579  133.3112  156.1971 C.ar    1  UNL1        0.0712
     32 CL        144.1188  132.1015  156.9549 Cl      1  UNL1       -0.0813
     33 C         143.7291  134.6674  156.8340 C.ar    1  UNL1        0.0491
@<TRIPOS>UNITY_ATOM_ATTR
8 1
charge -1
@<TRIPOS>BOND
     1     8     9   ar
     2     9    10   ar
     3     9     7    1
     4     7    11    1
     5    11    12    1
     6    12    13   ar
     7    13    14   ar
     8    14    15   ar
     9    15    16   ar
    10    16    17   ar
    11     7     1    1
    12     1     2    1
    13     2     3    1
    14     3     4    1
    15     4    18    1
    16    18    19    1
    17    19    20    1
    18    20    21    1
    19    21    22    1
    20    22    25    1
    21    25    26    1
    22    26    27   ar
    23    27    28   ar
    24    28    29   ar
    25    29    30    1
    26    29    31   ar
    27    31    32    1
    28    31    33   ar
    29    22    23    1
    30    23    24    1
    31     4     5    1
    32     5     6    1
    33    17    12   ar
    34     6     1    1
    35    24    19    1
    36    33    26   ar
