@<TRIPOS>MOLECULE
*****
 40 43 0 0 0
SMALL
GASTEIGER

@<TRIPOS>ATOM
      1 C         143.9964  142.9464  159.0222 C.ar    1  UNL1        0.0655
      2 C         144.6294  142.8238  160.3766 C.ar    1  UNL1        0.0337
      3 C         143.8420  143.1670  161.6064 C.ar    1  UNL1        0.0862
      4 C         142.4217  143.6328  161.4818 C.ar    1  UNL1        0.1534
      5 C         141.7887  143.7555  160.1274 C.ar    1  UNL1        0.0539
      6 C         142.5760  143.4123  158.8976 C.ar    1  UNL1        0.0647
      7 C         144.9058  141.1737  157.3549 C.2     1  UNL1        0.2497
      8 O         144.4712  140.2967  157.8424 O.2     1  UNL1       -0.2698
      9 N         144.7838  142.6032  157.7925 N.am    1  UNL1       -0.2794
     10 H         145.2204  143.3162  157.2726 H       1  UNL1        0.1552
     11 C         146.6886  141.8081  155.5746 C.2     1  UNL1        0.0048
     12 C         145.6932  140.8304  156.1252 C.2     1  UNL1        0.0580
     13 N         144.4751  143.0443  162.9607 N.pl3   1  UNL1       -0.2801
     14 H         145.0347  143.7749  163.3105 H       1  UNL1        0.1552
     15 C         144.2556  141.8085  163.7821 C.ar    1  UNL1        0.2208
     16 N         145.1740  140.6326  163.6278 N.ar    1  UNL1       -0.2111
     17 C         144.9545  139.3968  164.4492 C.ar    1  UNL1        0.1147
     18 C         143.8167  139.3370  165.4248 C.ar    1  UNL1        0.0945
     19 CL        143.5973  138.1012  166.2462 Cl      1  UNL1       -0.0790
     20 C         142.8983  140.5130  165.5790 C.ar    1  UNL1        0.0977
     21 N         143.1178  141.7487  164.7577 N.ar    1  UNL1       -0.2126
     22 C         141.7605  140.4531  166.5547 C.ar    1  UNL1        0.0372
     23 C         141.6866  141.1736  167.8682 C.ar    1  UNL1        0.0775
     24 N         140.3772  140.8280  168.5133 N.ar    1  UNL1       -0.3240
     25 C         139.8888  141.3285  169.8403 C.3     1  UNL1        0.1305
     26 C         139.6419  139.8940  167.5985 C.ar    1  UNL1        0.0600
     27 C         138.3044  139.2245  167.7113 C.ar    1  UNL1        0.0172
     28 C         137.8218  138.3233  166.6136 C.ar    1  UNL1        0.0015
     29 C         138.6767  138.0917  165.4031 C.ar    1  UNL1        0.0001
     30 C         140.0143  138.7611  165.2902 C.ar    1  UNL1        0.0015
     31 C         140.4969  139.6623  166.3879 C.ar    1  UNL1        0.0187
     32 O         141.6343  143.9760  162.7115 O.3     1  UNL1       -0.4701
     33 C         141.7368  145.3480  163.3091 C.3     1  UNL1        0.2525
     34 N         141.9430  143.5350  157.5433 N.pl3   1  UNL1       -0.3033
     35 C         141.2985  142.8025  157.0493 C.3     1  UNL1        0.1123
     36 C         142.1719  144.7658  156.7171 C.3     1  UNL1        0.1082
     37 C         141.2757  145.0642  155.5518 C.3     1  UNL1        0.0938
     38 N         140.4549  146.3196  155.5392 N.3     1  UNL1       -0.2688
     39 C         140.4055  147.1711  154.3053 C.3     1  UNL1        0.0897
     40 C         139.6833  146.7235  156.7605 C.3     1  UNL1        0.0897
@<TRIPOS>BOND
     1    11    12    2
     2    12     7    1
     3     7     8    2
     4     7     9   am
     5     9     1    1
     6     1     2   ar
     7     2     3   ar
     8     3    13    1
     9    13    15    1
    10    15    16   ar
    11    16    17   ar
    12    17    18   ar
    13    18    19    1
    14    18    20   ar
    15    20    22    1
    16    22    23   ar
    17    23    24   ar
    18    24    25    1
    19    24    26   ar
    20    26    27   ar
    21    27    28   ar
    22    28    29   ar
    23    29    30   ar
    24    30    31   ar
    25    20    21   ar
    26     3     4   ar
    27     4    32    1
    28    32    33    1
    29     4     5   ar
    30     5     6   ar
    31     6    34    1
    32    34    35    1
    33    34    36    1
    34    36    37    1
    35    37    38    1
    36    38    39    1
    37    38    40    1
    38     6     1   ar
    39    21    15   ar
    40    31    22   ar
    41    31    26   ar
    42     9    10    1
    43    13    14    1
@<TRIPOS>MOLECULE
*****
 40 43 0 0 0
SMALL
GASTEIGER

@<TRIPOS>ATOM
      1 C         143.9023  142.9807  159.0225 C.ar    1  UNL1        0.0655
      2 C         144.5040  142.8565  160.3909 C.ar    1  UNL1        0.0337
      3 C         143.6905  143.2041  161.6024 C.ar    1  UNL1        0.0862
      4 C         142.2754  143.6759  161.4453 C.ar    1  UNL1        0.1534
      5 C         141.6736  143.8001  160.0769 C.ar    1  UNL1        0.0539
      6 C         142.4871  143.4525  158.8655 C.ar    1  UNL1        0.0647
      7 C         144.8882  141.1980  157.4102 C.2     1  UNL1        0.2497
      8 O         144.4750  140.3197  157.9137 O.2     1  UNL1       -0.2698
      9 N         144.7158  142.6330  157.8112 N.am    1  UNL1       -0.2794
     10 H         145.1366  143.3467  157.2793 H       1  UNL1        0.1552
     11 C         145.2810  139.7150  155.3133 C.2     1  UNL1        0.0048
     12 C         145.7017  140.8503  156.1988 C.2     1  UNL1        0.0580
     13 N         144.2923  143.0799  162.9707 N.pl3   1  UNL1       -0.2801
     14 H         144.7997  143.8308  163.3553 H       1  UNL1        0.1552
     15 C         144.1210  141.8116  163.7531 C.ar    1  UNL1        0.2208
     16 N         145.2011  140.7708  163.7403 N.ar    1  UNL1       -0.2111
     17 C         145.0298  139.5025  164.5227 C.ar    1  UNL1        0.1147
     18 C         143.7785  139.2751  165.3179 C.ar    1  UNL1        0.0945
     19 CL        143.6072  138.0068  166.1003 Cl      1  UNL1       -0.0790
     20 C         142.6984  140.3160  165.3308 C.ar    1  UNL1        0.0977
     21 N         142.8697  141.5841  164.5484 N.ar    1  UNL1       -0.2126
     22 C         141.4470  140.0885  166.1261 C.ar    1  UNL1        0.0372
     23 C         140.2192  139.3694  165.6514 C.ar    1  UNL1        0.0775
     24 N         139.2172  139.3767  166.7676 N.ar    1  UNL1       -0.3240
     25 C         137.8472  138.7674  166.7266 C.3     1  UNL1        0.1305
     26 C         139.8258  140.1003  167.9322 C.ar    1  UNL1        0.0600
     27 C         139.3031  140.4155  169.3023 C.ar    1  UNL1        0.0172
     28 C         140.1585  141.1706  170.2760 C.ar    1  UNL1        0.0015
     29 C         141.5366  141.6105  169.8794 C.ar    1  UNL1        0.0001
     30 C         142.0593  141.2953  168.5093 C.ar    1  UNL1        0.0015
     31 C         141.2039  140.5403  167.5356 C.ar    1  UNL1        0.0187
     32 O         141.4619  144.0235  162.6567 O.3     1  UNL1       -0.4701
     33 C         141.7425  145.2895  163.4106 C.3     1  UNL1        0.2525
     34 N         141.8854  143.5767  157.4971 N.pl3   1  UNL1       -0.3033
     35 C         141.3943  142.7881  156.9201 C.3     1  UNL1        0.1123
     36 C         141.9222  144.8926  156.7782 C.3     1  UNL1        0.1082
     37 C         140.8777  145.9313  157.0611 C.3     1  UNL1        0.0938
     38 N         139.8418  146.2547  156.0256 N.3     1  UNL1       -0.2688
     39 C         139.0435  147.5200  156.1330 C.3     1  UNL1        0.0897
     40 C         139.6043  145.3128  154.8826 C.3     1  UNL1        0.0897
@<TRIPOS>BOND
     1    11    12    2
     2    12     7    1
     3     7     8    2
     4     7     9   am
     5     9     1    1
     6     1     2   ar
     7     2     3   ar
     8     3    13    1
     9    13    15    1
    10    15    16   ar
    11    16    17   ar
    12    17    18   ar
    13    18    19    1
    14    18    20   ar
    15    20    22    1
    16    22    23   ar
    17    23    24   ar
    18    24    25    1
    19    24    26   ar
    20    26    27   ar
    21    27    28   ar
    22    28    29   ar
    23    29    30   ar
    24    30    31   ar
    25    20    21   ar
    26     3     4   ar
    27     4    32    1
    28    32    33    1
    29     4     5   ar
    30     5     6   ar
    31     6    34    1
    32    34    35    1
    33    34    36    1
    34    36    37    1
    35    37    38    1
    36    38    39    1
    37    38    40    1
    38     6     1   ar
    39    21    15   ar
    40    31    22   ar
    41    31    26   ar
    42     9    10    1
    43    13    14    1
@<TRIPOS>MOLECULE
*****
 40 43 0 0 0
SMALL
GASTEIGER

@<TRIPOS>ATOM
      1 C         143.9775  142.9255  159.0352 C.ar    1  UNL1        0.0655
      2 C         144.6473  142.7744  160.3689 C.ar    1  UNL1        0.0337
      3 C         143.9136  143.1467  161.6232 C.ar    1  UNL1        0.0862
      4 C         142.5102  143.6701  161.5438 C.ar    1  UNL1        0.1534
      5 C         141.8404  143.8212  160.2101 C.ar    1  UNL1        0.0539
      6 C         142.5740  143.4489  158.9558 C.ar    1  UNL1        0.0647
      7 C         144.8624  141.1100  157.4010 C.2     1  UNL1        0.2497
      8 O         144.4864  140.2421  157.9496 O.2     1  UNL1       -0.2698
      9 N         144.7112  142.5532  157.7810 N.am    1  UNL1       -0.2794
     10 H         145.0935  143.2559  157.2073 H       1  UNL1        0.1552
     11 C         146.4833  141.7406  155.4708 C.2     1  UNL1        0.0048
     12 C         145.5961  140.7376  156.1468 C.2     1  UNL1        0.0580
     13 N         144.5834  142.9955  162.9567 N.pl3   1  UNL1       -0.2801
     14 H         145.1806  143.7034  163.2906 H       1  UNL1        0.1552
     15 C         144.3434  141.7659  163.7816 C.ar    1  UNL1        0.2208
     16 N         145.2621  140.5869  163.6552 N.ar    1  UNL1       -0.2111
     17 C         145.0221  139.3573  164.4801 C.ar    1  UNL1        0.1147
     18 C         143.8634  139.3066  165.4313 C.ar    1  UNL1        0.0945
     19 CL        143.6233  138.0770  166.2561 Cl      1  UNL1       -0.0790
     20 C         142.9446  140.4857  165.5576 C.ar    1  UNL1        0.0977
     21 N         143.1847  141.7152  164.7328 N.ar    1  UNL1       -0.2126
     22 C         141.7859  140.4350  166.5088 C.ar    1  UNL1        0.0372
     23 C         141.6790  141.1762  167.8085 C.ar    1  UNL1        0.0775
     24 N         140.3577  140.8335  168.4302 N.ar    1  UNL1       -0.3240
     25 C         139.8374  141.3526  169.7378 C.3     1  UNL1        0.1305
     26 C         139.6479  139.8805  167.5148 C.ar    1  UNL1        0.0600
     27 C         138.3118  139.2052  167.6091 C.ar    1  UNL1        0.0172
     28 C         137.8585  138.2836  166.5159 C.ar    1  UNL1        0.0015
     29 C         138.7412  138.0373  165.3284 C.ar    1  UNL1        0.0001
     30 C         140.0772  138.7126  165.2341 C.ar    1  UNL1        0.0015
     31 C         140.5306  139.6342  166.3273 C.ar    1  UNL1        0.0187
     32 O         141.7765  144.0424  162.7980 O.3     1  UNL1       -0.4701
     33 C         142.0970  145.3282  163.5008 C.3     1  UNL1        0.2525
     34 N         141.9042  143.6001  157.6223 N.pl3   1  UNL1       -0.3033
     35 C         142.0354  144.4185  156.9089 C.3     1  UNL1        0.1123
     36 C         140.9371  142.5570  157.1462 C.3     1  UNL1        0.1082
     37 C         140.3783  141.5554  158.1128 C.3     1  UNL1        0.0938
     38 N         141.0490  140.2249  158.2857 N.3     1  UNL1       -0.2688
     39 C         141.4892  139.7782  159.6482 C.3     1  UNL1        0.0897
     40 C         141.2795  139.3410  157.0959 C.3     1  UNL1        0.0897
@<TRIPOS>BOND
     1    11    12    2
     2    12     7    1
     3     7     8    2
     4     7     9   am
     5     9     1    1
     6     1     2   ar
     7     2     3   ar
     8     3    13    1
     9    13    15    1
    10    15    16   ar
    11    16    17   ar
    12    17    18   ar
    13    18    19    1
    14    18    20   ar
    15    20    22    1
    16    22    23   ar
    17    23    24   ar
    18    24    25    1
    19    24    26   ar
    20    26    27   ar
    21    27    28   ar
    22    28    29   ar
    23    29    30   ar
    24    30    31   ar
    25    20    21   ar
    26     3     4   ar
    27     4    32    1
    28    32    33    1
    29     4     5   ar
    30     5     6   ar
    31     6    34    1
    32    34    35    1
    33    34    36    1
    34    36    37    1
    35    37    38    1
    36    38    39    1
    37    38    40    1
    38     6     1   ar
    39    21    15   ar
    40    31    22   ar
    41    31    26   ar
    42     9    10    1
    43    13    14    1
@<TRIPOS>MOLECULE
*****
 40 43 0 0 0
SMALL
GASTEIGER

@<TRIPOS>ATOM
      1 C         140.6758  141.6847  166.2118 C.ar    1  UNL1        0.0655
      2 C         140.2923  142.9194  165.4512 C.ar    1  UNL1        0.0337
      3 C         141.3506  143.7539  164.7929 C.ar    1  UNL1        0.0862
      4 C         142.7926  143.3538  164.8951 C.ar    1  UNL1        0.1534
      5 C         143.1763  142.1190  165.6557 C.ar    1  UNL1        0.0539
      6 C         142.1179  141.2845  166.3140 C.ar    1  UNL1        0.0647
      7 C         139.0243  139.6804  166.1423 C.2     1  UNL1        0.2497
      8 O         139.2761  139.3349  165.1359 O.2     1  UNL1       -0.2698
      9 N         139.6174  140.8502  166.8701 N.am    1  UNL1       -0.2794
     10 H         139.3121  141.0702  167.7798 H       1  UNL1        0.1552
     11 C         137.8427  137.3891  166.4648 C.2     1  UNL1        0.0048
     12 C         137.9659  138.8458  166.8005 C.2     1  UNL1        0.0580
     13 N         140.9670  144.9886  164.0324 N.pl3   1  UNL1       -0.2801
     14 H         140.8385  145.8403  164.5092 H       1  UNL1        0.1552
     15 C         140.7791  144.9256  162.5456 C.ar    1  UNL1        0.2208
     16 N         140.0930  146.0501  161.8280 N.ar    1  UNL1       -0.2111
     17 C         139.9051  145.9871  160.3412 C.ar    1  UNL1        0.1147
     18 C         140.4032  144.7997  159.5719 C.ar    1  UNL1        0.0945
     19 CL        140.2153  144.7367  158.0850 Cl      1  UNL1       -0.0790
     20 C         141.0893  143.6751  160.2895 C.ar    1  UNL1        0.0977
     21 N         141.2772  143.7382  161.7763 N.ar    1  UNL1       -0.2126
     22 C         141.5874  142.4877  159.5202 C.ar    1  UNL1        0.0372
     23 C         142.9335  142.3593  158.8708 C.ar    1  UNL1        0.0775
     24 N         143.0048  141.0124  158.2145 N.ar    1  UNL1       -0.3240
     25 C         144.1730  140.4655  157.4488 C.3     1  UNL1        0.1305
     26 C         141.7029  140.3083  158.4582 C.ar    1  UNL1        0.0600
     27 C         141.2020  138.9548  158.0496 C.ar    1  UNL1        0.0172
     28 C         139.8250  138.5131  158.4480 C.ar    1  UNL1        0.0015
     29 C         138.9490  139.4249  159.2550 C.ar    1  UNL1        0.0001
     30 C         139.4499  140.7784  159.6636 C.ar    1  UNL1        0.0015
     31 C         140.8269  141.2201  159.2652 C.ar    1  UNL1        0.0187
     32 O         143.8511  144.1883  164.2368 O.3     1  UNL1       -0.4701
     33 C         144.4723  143.7331  162.9496 C.3     1  UNL1        0.2525
     34 N         142.5015  140.0499  167.0745 N.pl3   1  UNL1       -0.3033
     35 C         142.6660  139.0492  166.6650 C.3     1  UNL1        0.1123
     36 C         142.6992  140.1150  168.5599 C.3     1  UNL1        0.1082
     37 C         142.4647  141.4031  169.2919 C.3     1  UNL1        0.0938
     38 N         141.0893  141.7483  169.7808 N.3     1  UNL1       -0.2688
     39 C         140.5755  143.1511  169.6460 C.3     1  UNL1        0.0897
     40 C         140.2277  140.6908  170.4046 C.3     1  UNL1        0.0897
@<TRIPOS>BOND
     1    11    12    2
     2    12     7    1
     3     7     8    2
     4     7     9   am
     5     9     1    1
     6     1     2   ar
     7     2     3   ar
     8     3    13    1
     9    13    15    1
    10    15    16   ar
    11    16    17   ar
    12    17    18   ar
    13    18    19    1
    14    18    20   ar
    15    20    22    1
    16    22    23   ar
    17    23    24   ar
    18    24    25    1
    19    24    26   ar
    20    26    27   ar
    21    27    28   ar
    22    28    29   ar
    23    29    30   ar
    24    30    31   ar
    25    20    21   ar
    26     3     4   ar
    27     4    32    1
    28    32    33    1
    29     4     5   ar
    30     5     6   ar
    31     6    34    1
    32    34    35    1
    33    34    36    1
    34    36    37    1
    35    37    38    1
    36    38    39    1
    37    38    40    1
    38     6     1   ar
    39    21    15   ar
    40    31    22   ar
    41    31    26   ar
    42     9    10    1
    43    13    14    1
@<TRIPOS>MOLECULE
*****
 40 43 0 0 0
SMALL
GASTEIGER

@<TRIPOS>ATOM
      1 C         144.0948  141.4114  160.7205 C.ar    1  UNL1        0.0655
      2 C         143.7527  140.2855  161.6507 C.ar    1  UNL1        0.0337
      3 C         143.3157  138.9616  161.0971 C.ar    1  UNL1        0.0862
      4 C         143.2207  138.7637  159.6133 C.ar    1  UNL1        0.1534
      5 C         143.5628  139.8896  158.6830 C.ar    1  UNL1        0.0539
      6 C         143.9999  141.2135  159.2366 C.ar    1  UNL1        0.0647
      7 C         143.6371  143.4871  162.2144 C.2     1  UNL1        0.2497
      8 O         142.6501  143.1798  162.5708 O.2     1  UNL1       -0.2698
      9 N         144.5318  142.7353  161.2741 N.am    1  UNL1       -0.2794
     10 H         145.4058  143.1107  161.0203 H       1  UNL1        0.1552
     11 C         143.5628  145.2722  164.1007 C.2     1  UNL1        0.0048
     12 C         144.0740  144.8109  162.7681 C.2     1  UNL1        0.0580
     13 N         142.9736  137.8358  162.0274 N.pl3   1  UNL1       -0.2801
     14 H         143.4910  136.9987  161.9984 H       1  UNL1        0.1552
     15 C         141.8432  137.9853  163.0020 C.ar    1  UNL1        0.2208
     16 N         140.8768  136.8568  163.2084 N.ar    1  UNL1       -0.2111
     17 C         139.7464  137.0063  164.1830 C.ar    1  UNL1        0.1147
     18 C         139.5824  138.2842  164.9512 C.ar    1  UNL1        0.0945
     19 CL        138.4521  138.4336  165.9258 Cl      1  UNL1       -0.0790
     20 C         140.5490  139.4126  164.7448 C.ar    1  UNL1        0.0977
     21 N         141.6793  139.2631  163.7703 N.ar    1  UNL1       -0.2126
     22 C         140.3850  140.6905  165.5131 C.ar    1  UNL1        0.0372
     23 C         140.7443  140.9057  166.9534 C.ar    1  UNL1        0.0775
     24 N         140.4143  142.3257  167.3063 N.ar    1  UNL1       -0.3240
     25 C         140.6127  142.9702  168.6462 C.3     1  UNL1        0.1305
     26 C         139.8511  142.9882  166.0840 C.ar    1  UNL1        0.0600
     27 C         139.3524  144.3811  165.8371 C.ar    1  UNL1        0.0172
     28 C         138.8355  144.7634  164.4819 C.ar    1  UNL1        0.0015
     29 C         138.8174  143.7528  163.3736 C.ar    1  UNL1        0.0001
     30 C         139.3161  142.3599  163.6205 C.ar    1  UNL1        0.0015
     31 C         139.8330  141.9776  164.9757 C.ar    1  UNL1        0.0187
     32 O         142.7837  137.4398  159.0597 O.3     1  UNL1       -0.4701
     33 C         142.6827  137.2438  157.5760 C.3     1  UNL1        0.2525
     34 N         144.3419  142.3393  158.3063 N.pl3   1  UNL1       -0.3033
     35 C         143.6756  143.1364  157.9649 C.3     1  UNL1        0.1123
     36 C         145.7271  142.4513  157.7419 C.3     1  UNL1        0.1082
     37 C         146.0622  141.7872  156.4394 C.3     1  UNL1        0.0938
     38 N         147.1389  142.3553  155.5630 N.3     1  UNL1       -0.2688
     39 C         148.5588  141.9016  155.7295 C.3     1  UNL1        0.0897
     40 C         146.7956  143.3773  154.5200 C.3     1  UNL1        0.0897
@<TRIPOS>BOND
     1    11    12    2
     2    12     7    1
     3     7     8    2
     4     7     9   am
     5     9     1    1
     6     1     2   ar
     7     2     3   ar
     8     3    13    1
     9    13    15    1
    10    15    16   ar
    11    16    17   ar
    12    17    18   ar
    13    18    19    1
    14    18    20   ar
    15    20    22    1
    16    22    23   ar
    17    23    24   ar
    18    24    25    1
    19    24    26   ar
    20    26    27   ar
    21    27    28   ar
    22    28    29   ar
    23    29    30   ar
    24    30    31   ar
    25    20    21   ar
    26     3     4   ar
    27     4    32    1
    28    32    33    1
    29     4     5   ar
    30     5     6   ar
    31     6    34    1
    32    34    35    1
    33    34    36    1
    34    36    37    1
    35    37    38    1
    36    38    39    1
    37    38    40    1
    38     6     1   ar
    39    21    15   ar
    40    31    22   ar
    41    31    26   ar
    42     9    10    1
    43    13    14    1
@<TRIPOS>MOLECULE
*****
 40 43 0 0 0
SMALL
GASTEIGER

@<TRIPOS>ATOM
      1 C         143.0714  133.4833  156.4143 C.ar    1  UNL1        0.0655
      2 C         143.3994  134.8552  156.9246 C.ar    1  UNL1        0.0337
      3 C         143.1615  136.0551  156.0565 C.ar    1  UNL1        0.0862
      4 C         142.5954  135.8831  154.6781 C.ar    1  UNL1        0.1534
      5 C         142.2674  134.5112  154.1678 C.ar    1  UNL1        0.0539
      6 C         142.5054  133.3113  155.0359 C.ar    1  UNL1        0.0647
      7 C         144.6056  131.5345  157.1878 C.2     1  UNL1        0.2497
      8 O         145.4499  131.7607  156.5309 O.2     1  UNL1       -0.2698
      9 N         143.3094  132.2834  157.2825 N.am    1  UNL1       -0.2794
     10 H         142.6149  131.9875  157.9144 H       1  UNL1        0.1552
     11 C         143.6976  129.4447  158.4362 C.2     1  UNL1        0.0048
     12 C         144.8436  130.3346  158.0559 C.2     1  UNL1        0.0580
     13 N         143.4895  137.4269  156.5669 N.pl3   1  UNL1       -0.2801
     14 H         144.2429  137.9289  156.1799 H       1  UNL1        0.1552
     15 C         142.6698  138.0339  157.6667 C.ar    1  UNL1        0.2208
     16 N         141.1960  138.2393  157.4777 N.ar    1  UNL1       -0.2111
     17 C         140.3763  138.8463  158.5776 C.ar    1  UNL1        0.1147
     18 C         141.0304  139.2480  159.8663 C.ar    1  UNL1        0.0945
     19 CL        140.2108  139.8550  160.9661 Cl      1  UNL1       -0.0790
     20 C         142.5043  139.0426  160.0552 C.ar    1  UNL1        0.0977
     21 N         143.3239  138.4356  158.9554 N.ar    1  UNL1       -0.2126
     22 C         143.1585  139.4442  161.3440 C.ar    1  UNL1        0.0372
     23 C         144.2373  140.4744  161.5015 C.ar    1  UNL1        0.0775
     24 N         144.5941  140.5530  162.9563 N.ar    1  UNL1       -0.3240
     25 C         145.6278  141.4549  163.5631 C.3     1  UNL1        0.1305
     26 C         143.7358  139.5715  163.6979 C.ar    1  UNL1        0.0600
     27 C         143.6476  139.2132  165.1518 C.ar    1  UNL1        0.0172
     28 C         142.6720  138.1697  165.6091 C.ar    1  UNL1        0.0015
     29 C         141.7847  137.4844  164.6126 C.ar    1  UNL1        0.0001
     30 C         141.8729  137.8426  163.1587 C.ar    1  UNL1        0.0015
     31 C         142.8485  138.8862  162.7014 C.ar    1  UNL1        0.0187
     32 O         142.3575  137.0830  153.8100 O.3     1  UNL1       -0.4701
     33 C         141.8609  136.9061  152.4056 C.3     1  UNL1        0.2525
     34 N         142.1773  131.9395  154.5256 N.pl3   1  UNL1       -0.3033
     35 C         142.7862  131.3222  153.8592 C.3     1  UNL1        0.1123
     36 C         140.8936  131.2765  154.9286 C.3     1  UNL1        0.1082
     37 C         140.4980  129.9690  154.3089 C.3     1  UNL1        0.0938
     38 N         140.5718  128.7051  155.1132 N.3     1  UNL1       -0.2688
     39 C         141.9052  128.1010  155.4404 C.3     1  UNL1        0.0897
     40 C         139.3122  128.0451  155.5904 C.3     1  UNL1        0.0897
@<TRIPOS>BOND
     1    11    12    2
     2    12     7    1
     3     7     8    2
     4     7     9   am
     5     9     1    1
     6     1     2   ar
     7     2     3   ar
     8     3    13    1
     9    13    15    1
    10    15    16   ar
    11    16    17   ar
    12    17    18   ar
    13    18    19    1
    14    18    20   ar
    15    20    22    1
    16    22    23   ar
    17    23    24   ar
    18    24    25    1
    19    24    26   ar
    20    26    27   ar
    21    27    28   ar
    22    28    29   ar
    23    29    30   ar
    24    30    31   ar
    25    20    21   ar
    26     3     4   ar
    27     4    32    1
    28    32    33    1
    29     4     5   ar
    30     5     6   ar
    31     6    34    1
    32    34    35    1
    33    34    36    1
    34    36    37    1
    35    37    38    1
    36    38    39    1
    37    38    40    1
    38     6     1   ar
    39    21    15   ar
    40    31    22   ar
    41    31    26   ar
    42     9    10    1
    43    13    14    1
@<TRIPOS>MOLECULE
*****
 40 43 0 0 0
SMALL
GASTEIGER

@<TRIPOS>ATOM
      1 C         138.9594  140.0809  158.6008 C.ar    1  UNL1        0.0655
      2 C         138.1307  140.6815  159.6973 C.ar    1  UNL1        0.0337
      3 C         137.9245  139.9302  160.9791 C.ar    1  UNL1        0.0862
      4 C         138.5471  138.5781  161.1644 C.ar    1  UNL1        0.1534
      5 C         139.3759  137.9775  160.0678 C.ar    1  UNL1        0.0539
      6 C         139.5821  138.7289  158.7860 C.ar    1  UNL1        0.0647
      7 C         138.1788  140.6886  156.1985 C.2     1  UNL1        0.2497
      8 O         137.2757  140.0722  156.1918 O.2     1  UNL1       -0.2698
      9 N         139.1656  140.8324  157.3191 N.am    1  UNL1       -0.2794
     10 H         139.9484  141.4199  157.2133 H       1  UNL1        0.1552
     11 C         137.2021  141.9465  154.1457 C.2     1  UNL1        0.0048
     12 C         138.3849  141.4400  154.9167 C.2     1  UNL1        0.0580
     13 N         137.0957  140.5308  162.0756 N.pl3   1  UNL1       -0.2801
     14 H         136.1228  140.3816  162.0954 H       1  UNL1        0.1552
     15 C         137.7492  141.3589  163.1420 C.ar    1  UNL1        0.2208
     16 N         137.5605  142.8469  163.1571 N.ar    1  UNL1       -0.2111
     17 C         138.2140  143.6750  164.2235 C.ar    1  UNL1        0.1147
     18 C         139.0562  143.0151  165.2747 C.ar    1  UNL1        0.0945
     19 CL        139.7097  143.8432  166.3411 Cl      1  UNL1       -0.0790
     20 C         139.2450  141.5271  165.2596 C.ar    1  UNL1        0.0977
     21 N         138.5915  140.6991  164.1933 N.ar    1  UNL1       -0.2126
     22 C         140.0872  140.8672  166.3109 C.ar    1  UNL1        0.0372
     23 C         139.8186  140.8711  167.7866 C.ar    1  UNL1        0.0775
     24 N         140.9113  140.0939  168.4587 N.ar    1  UNL1       -0.3240
     25 C         141.0379  139.8447  169.9325 C.3     1  UNL1        0.1305
     26 C         141.8553  139.6095  167.3984 C.ar    1  UNL1        0.0600
     27 C         143.1129  138.7951  167.4701 C.ar    1  UNL1        0.0172
     28 C         143.8611  138.4586  166.2144 C.ar    1  UNL1        0.0015
     29 C         143.3518  138.9365  164.8870 C.ar    1  UNL1        0.0001
     30 C         142.0942  139.7510  164.8152 C.ar    1  UNL1        0.0015
     31 C         141.3460  140.0875  166.0709 C.ar    1  UNL1        0.0187
     32 O         138.3410  137.8267  162.4461 O.3     1  UNL1       -0.4701
     33 C         139.5085  137.5386  163.3427 C.3     1  UNL1        0.2525
     34 N         140.4108  138.1282  157.6896 N.pl3   1  UNL1       -0.3033
     35 C         140.0574  137.5043  156.8639 C.3     1  UNL1        0.1123
     36 C         141.8918  138.3638  157.6538 C.3     1  UNL1        0.1082
     37 C         142.7120  138.1711  158.8948 C.3     1  UNL1        0.0938
     38 N         143.1604  139.3614  159.6898 N.3     1  UNL1       -0.2688
     39 C         142.6504  140.7292  159.3447 C.3     1  UNL1        0.0897
     40 C         144.1188  139.1840  160.8299 C.3     1  UNL1        0.0897
@<TRIPOS>BOND
     1    11    12    2
     2    12     7    1
     3     7     8    2
     4     7     9   am
     5     9     1    1
     6     1     2   ar
     7     2     3   ar
     8     3    13    1
     9    13    15    1
    10    15    16   ar
    11    16    17   ar
    12    17    18   ar
    13    18    19    1
    14    18    20   ar
    15    20    22    1
    16    22    23   ar
    17    23    24   ar
    18    24    25    1
    19    24    26   ar
    20    26    27   ar
    21    27    28   ar
    22    28    29   ar
    23    29    30   ar
    24    30    31   ar
    25    20    21   ar
    26     3     4   ar
    27     4    32    1
    28    32    33    1
    29     4     5   ar
    30     5     6   ar
    31     6    34    1
    32    34    35    1
    33    34    36    1
    34    36    37    1
    35    37    38    1
    36    38    39    1
    37    38    40    1
    38     6     1   ar
    39    21    15   ar
    40    31    22   ar
    41    31    26   ar
    42     9    10    1
    43    13    14    1
@<TRIPOS>MOLECULE
*****
 40 43 0 0 0
SMALL
GASTEIGER

@<TRIPOS>ATOM
      1 C         141.7922  141.7071  158.0026 C.ar    1  UNL1        0.0655
      2 C         141.5887  142.8435  158.9602 C.ar    1  UNL1        0.0337
      3 C         142.6413  143.1625  159.9803 C.ar    1  UNL1        0.0862
      4 C         143.8974  142.3450  160.0427 C.ar    1  UNL1        0.1534
      5 C         144.1009  141.2085  159.0849 C.ar    1  UNL1        0.0539
      6 C         143.0483  140.8896  158.0649 C.ar    1  UNL1        0.0647
      7 C         139.3685  140.9711  157.4251 C.2     1  UNL1        0.2497
      8 O         139.0136  140.8622  158.4536 O.2     1  UNL1       -0.2698
      9 N         140.7397  141.3882  156.9826 N.am    1  UNL1       -0.2794
     10 H         140.9488  141.4527  156.0227 H       1  UNL1        0.1552
     11 C         136.8869  141.0317  156.6581 C.2     1  UNL1        0.0048
     12 C         138.3159  140.6521  156.4052 C.2     1  UNL1        0.0580
     13 N         142.4377  144.2990  160.9379 N.pl3   1  UNL1       -0.2801
     14 H         143.0680  145.0552  160.9455 H       1  UNL1        0.1552
     15 C         141.2737  144.2833  161.8839 C.ar    1  UNL1        0.2208
     16 N         140.3327  145.4503  161.9346 N.ar    1  UNL1       -0.2111
     17 C         139.1688  145.4346  162.8807 C.ar    1  UNL1        0.1147
     18 C         138.9458  144.2519  163.7759 C.ar    1  UNL1        0.0945
     19 CL        137.7819  144.2362  164.7220 Cl      1  UNL1       -0.0790
     20 C         139.8869  143.0848  163.7252 C.ar    1  UNL1        0.0977
     21 N         141.0508  143.1006  162.7792 N.ar    1  UNL1       -0.2126
     22 C         139.6639  141.9021  164.6205 C.ar    1  UNL1        0.0372
     23 C         139.1574  140.5563  164.1937 C.ar    1  UNL1        0.0775
     24 N         139.0888  139.6801  165.4092 N.ar    1  UNL1       -0.3240
     25 C         138.6356  138.2505  165.4412 C.3     1  UNL1        0.1305
     26 C         139.5530  140.4843  166.5872 C.ar    1  UNL1        0.0600
     27 C         139.6979  140.1436  168.0408 C.ar    1  UNL1        0.0172
     28 C         140.1983  141.1762  169.0069 C.ar    1  UNL1        0.0015
     29 C         140.5538  142.5495  168.5194 C.ar    1  UNL1        0.0001
     30 C         140.4088  142.8902  167.0658 C.ar    1  UNL1        0.0015
     31 C         139.9084  141.8577  166.0998 C.ar    1  UNL1        0.0187
     32 O         144.9499  142.6639  161.0627 O.3     1  UNL1       -0.4701
     33 C         145.0586  141.8397  162.3111 C.3     1  UNL1        0.2525
     34 N         143.2519  139.7532  157.1073 N.pl3   1  UNL1       -0.3033
     35 C         143.7392  139.7960  156.1293 C.3     1  UNL1        0.1123
     36 C         142.7619  138.3797  157.4583 C.3     1  UNL1        0.1082
     37 C         141.6741  138.2090  158.4769 C.3     1  UNL1        0.0938
     38 N         141.9853  138.3507  159.9374 N.3     1  UNL1       -0.2688
     39 C         141.0989  139.1830  160.8158 C.3     1  UNL1        0.0897
     40 C         143.1829  137.6602  160.5195 C.3     1  UNL1        0.0897
@<TRIPOS>BOND
     1    11    12    2
     2    12     7    1
     3     7     8    2
     4     7     9   am
     5     9     1    1
     6     1     2   ar
     7     2     3   ar
     8     3    13    1
     9    13    15    1
    10    15    16   ar
    11    16    17   ar
    12    17    18   ar
    13    18    19    1
    14    18    20   ar
    15    20    22    1
    16    22    23   ar
    17    23    24   ar
    18    24    25    1
    19    24    26   ar
    20    26    27   ar
    21    27    28   ar
    22    28    29   ar
    23    29    30   ar
    24    30    31   ar
    25    20    21   ar
    26     3     4   ar
    27     4    32    1
    28    32    33    1
    29     4     5   ar
    30     5     6   ar
    31     6    34    1
    32    34    35    1
    33    34    36    1
    34    36    37    1
    35    37    38    1
    36    38    39    1
    37    38    40    1
    38     6     1   ar
    39    21    15   ar
    40    31    22   ar
    41    31    26   ar
    42     9    10    1
    43    13    14    1
@<TRIPOS>MOLECULE
*****
 40 43 0 0 0
SMALL
GASTEIGER

@<TRIPOS>ATOM
      1 C         139.9286  140.5783  157.7128 C.ar    1  UNL1        0.0655
      2 C         138.9778  140.9975  158.7945 C.ar    1  UNL1        0.0337
      3 C         138.9366  142.4280  159.2441 C.ar    1  UNL1        0.0862
      4 C         139.8464  143.4393  158.6118 C.ar    1  UNL1        0.1534
      5 C         140.7973  143.0201  157.5300 C.ar    1  UNL1        0.0539
      6 C         140.8383  141.5896  157.0805 C.ar    1  UNL1        0.0647
      7 C         139.1685  138.7128  156.0721 C.2     1  UNL1        0.2497
      8 O         138.5201  139.3372  155.4514 O.2     1  UNL1       -0.2698
      9 N         139.9697  139.1478  157.2632 N.am    1  UNL1       -0.2794
     10 H         140.5224  138.4946  157.7500 H       1  UNL1        0.1552
     11 C         140.2081  136.8487  154.5907 C.2     1  UNL1        0.0048
     12 C         139.2095  137.2823  155.6225 C.2     1  UNL1        0.0580
     13 N         137.9858  142.8472  160.3258 N.pl3   1  UNL1       -0.2801
     14 H         137.0451  143.0386  160.1074 H       1  UNL1        0.1552
     15 C         138.4681  142.9747  161.7404 C.ar    1  UNL1        0.2208
     16 N         137.7846  143.9199  162.6835 N.ar    1  UNL1       -0.2111
     17 C         138.2670  144.0474  164.0981 C.ar    1  UNL1        0.1147
     18 C         139.4328  143.2297  164.5696 C.ar    1  UNL1        0.0945
     19 CL        139.9151  143.3572  165.9842 Cl      1  UNL1       -0.0790
     20 C         140.1163  142.2845  163.6264 C.ar    1  UNL1        0.0977
     21 N         139.6339  142.1570  162.2119 N.ar    1  UNL1       -0.2126
     22 C         141.2821  141.4668  164.0980 C.ar    1  UNL1        0.0372
     23 C         141.2124  140.2693  164.9986 C.ar    1  UNL1        0.0775
     24 N         142.6095  139.7655  165.2088 N.ar    1  UNL1       -0.3240
     25 C         143.0042  138.5831  166.0432 C.3     1  UNL1        0.1305
     26 C         143.5427  140.6517  164.4382 C.ar    1  UNL1        0.0600
     27 C         145.0335  140.6370  164.2729 C.ar    1  UNL1        0.0172
     28 C         145.7038  141.6737  163.4211 C.ar    1  UNL1        0.0015
     29 C         144.8834  142.7252  162.7345 C.ar    1  UNL1        0.0001
     30 C         143.3927  142.7399  162.8998 C.ar    1  UNL1        0.0015
     31 C         142.7223  141.7031  163.7516 C.ar    1  UNL1        0.0187
     32 O         139.8053  144.8698  159.0614 O.3     1  UNL1       -0.4701
     33 C         140.7501  145.3498  160.1229 C.3     1  UNL1        0.2525
     34 N         141.7892  141.1704  155.9988 N.pl3   1  UNL1       -0.3033
     35 C         141.6258  141.2310  154.9192 C.3     1  UNL1        0.1123
     36 C         143.1281  140.5973  156.3577 C.3     1  UNL1        0.1082
     37 C         143.3442  139.1136  156.3162 C.3     1  UNL1        0.0938
     38 N         143.0807  138.2829  157.5371 N.3     1  UNL1       -0.2688
     39 C         143.0991  138.9190  158.8954 C.3     1  UNL1        0.0897
     40 C         142.7987  136.8160  157.3997 C.3     1  UNL1        0.0897
@<TRIPOS>BOND
     1    11    12    2
     2    12     7    1
     3     7     8    2
     4     7     9   am
     5     9     1    1
     6     1     2   ar
     7     2     3   ar
     8     3    13    1
     9    13    15    1
    10    15    16   ar
    11    16    17   ar
    12    17    18   ar
    13    18    19    1
    14    18    20   ar
    15    20    22    1
    16    22    23   ar
    17    23    24   ar
    18    24    25    1
    19    24    26   ar
    20    26    27   ar
    21    27    28   ar
    22    28    29   ar
    23    29    30   ar
    24    30    31   ar
    25    20    21   ar
    26     3     4   ar
    27     4    32    1
    28    32    33    1
    29     4     5   ar
    30     5     6   ar
    31     6    34    1
    32    34    35    1
    33    34    36    1
    34    36    37    1
    35    37    38    1
    36    38    39    1
    37    38    40    1
    38     6     1   ar
    39    21    15   ar
    40    31    22   ar
    41    31    26   ar
    42     9    10    1
    43    13    14    1
