@<TRIPOS>MOLECULE
*****
 37 42 0 0 0
SMALL
GASTEIGER

@<TRIPOS>ATOM
      1 C         139.8212  144.1399  158.2896 C.3     1  UNL1        0.0666
      2 S         140.8196  145.0093  158.9948 S.3     1  UNL1       -0.0756
      3 C         141.5648  144.4154  162.7575 C.ar    1  UNL1        0.1669
      4 N         140.5228  145.4917  162.8347 N.ar    1  UNL1       -0.1282
      5 N         140.1169  145.8452  161.4346 N.ar    1  UNL1       -0.1221
      6 C         140.9079  144.9873  160.4920 C.ar    1  UNL1        0.1932
      7 N         141.8028  144.1036  161.3097 N.ar    1  UNL1       -0.2884
      8 C         142.7664  143.0868  160.7735 C.3     1  UNL1        0.1340
      9 C         139.2371  139.9128  167.4006 C.3     1  UNL1        0.0521
     10 C         139.9900  140.8758  166.5313 C.ar    1  UNL1        0.0593
     11 C         139.3062  141.5262  165.3654 C.ar    1  UNL1        0.0147
     12 C         140.0590  142.4893  164.4961 C.ar    1  UNL1        0.0028
     13 C         141.4958  142.8020  164.7927 C.ar    1  UNL1        0.0206
     14 C         142.2486  143.7650  163.9234 C.ar    1  UNL1        0.0374
     15 C         143.6854  144.0777  164.2200 C.ar    1  UNL1        0.0031
     16 C         144.3693  143.4273  165.3859 C.ar    1  UNL1        0.0016
     17 C         143.6164  142.4643  166.2552 C.ar    1  UNL1        0.0191
     18 C         142.1796  142.1516  165.9586 C.ar    1  UNL1        0.0810
     19 N         141.4267  141.1885  166.8279 N.ar    1  UNL1       -0.2497
     20 C         139.6332  142.7146  158.7175 C.3     1  UNL1        0.0294
     21 C         138.4603  142.3368  159.5727 C.3     1  UNL1        0.0730
     22 N         138.5003  141.0775  160.3869 N.3     1  UNL1       -0.2724
     23 C         137.4381  140.0193  160.4267 C.3     1  UNL1        0.0724
     24 C         137.8909  138.9432  161.3685 C.3     1  UNL1        0.0214
     25 C         138.5967  138.0494  162.3448 C.3     1  UNL1        0.0072
     26 C         139.2330  139.3365  161.9108 C.3     1  UNL1        0.0350
     27 C         139.6096  140.6556  161.3041 C.3     1  UNL1        0.0761
     28 C         140.4753  139.1837  162.7374 C.ar    1  UNL1       -0.0215
     29 C         141.7144  139.9487  162.3776 C.ar    1  UNL1       -0.0043
     30 C         142.9567  139.7958  163.2042 C.ar    1  UNL1        0.0035
     31 C         142.9601  138.8779  164.3905 C.ar    1  UNL1        0.0714
     32 C         141.7210  138.1129  164.7503 C.ar    1  UNL1        0.0035
     33 C         140.4787  138.2658  163.9237 C.ar    1  UNL1       -0.0043
     34 C         144.2024  138.7251  165.2171 C.3     1  UNL1        0.4186
     35 F         145.4448  138.5722  166.0436 F       1  UNL1       -0.1659
     36 F         143.5030  137.7190  166.0824 F       1  UNL1       -0.1659
     37 F         144.9019  139.7311  164.3518 F       1  UNL1       -0.1659
@<TRIPOS>BOND
     1     9    10    1
     2    10    11   ar
     3    11    12   ar
     4    12    13   ar
     5    13    14   ar
     6    14     3    1
     7     3     4   ar
     8     4     5   ar
     9     5     6   ar
    10     6     2    1
    11     2     1    1
    12     1    20    1
    13    20    21    1
    14    21    22    1
    15    22    23    1
    16    24    23    1
    17    24    25    1
    18    25    26    1
    19    26    28    1
    20    28    29   ar
    21    29    30   ar
    22    30    31   ar
    23    31    34    1
    24    34    35    1
    25    34    36    1
    26    34    37    1
    27    31    32   ar
    28    32    33   ar
    29    26    27    1
    30     6     7   ar
    31     7     8    1
    32    14    15   ar
    33    15    16   ar
    34    16    17   ar
    35    17    18   ar
    36    18    19   ar
    37    19    10   ar
    38    18    13   ar
    39     7     3   ar
    40    27    22    1
    41    26    24    1
    42    33    28   ar
@<TRIPOS>MOLECULE
*****
 37 42 0 0 0
SMALL
GASTEIGER

@<TRIPOS>ATOM
      1 C         143.1234  143.5405  158.6121 C.3     1  UNL1        0.0666
      2 S         144.1159  142.4834  158.9961 S.3     1  UNL1       -0.0756
      3 C         143.3265  140.0466  161.9124 C.ar    1  UNL1        0.1669
      4 N         142.8311  139.2600  160.7351 N.ar    1  UNL1       -0.1282
      5 N         143.0665  140.0771  159.4994 N.ar    1  UNL1       -0.1221
      6 C         143.7074  141.3687  159.9129 C.ar    1  UNL1        0.1932
      7 N         143.8681  141.3498  161.4042 N.ar    1  UNL1       -0.2884
      8 C         144.4655  142.4424  162.2405 C.3     1  UNL1        0.1340
      9 C         138.0373  139.2350  166.2270 C.3     1  UNL1        0.0521
     10 C         139.3498  139.3280  165.5067 C.ar    1  UNL1        0.0593
     11 C         139.3891  139.7675  164.0731 C.ar    1  UNL1        0.0147
     12 C         140.7016  139.8606  163.3529 C.ar    1  UNL1        0.0028
     13 C         141.9747  139.5141  164.0662 C.ar    1  UNL1        0.0206
     14 C         143.2872  139.6071  163.3460 C.ar    1  UNL1        0.0374
     15 C         144.5604  139.2606  164.0593 C.ar    1  UNL1        0.0031
     16 C         144.5211  138.8211  165.4930 C.ar    1  UNL1        0.0016
     17 C         143.2087  138.7281  166.2132 C.ar    1  UNL1        0.0191
     18 C         141.9354  139.0746  165.4998 C.ar    1  UNL1        0.0810
     19 N         140.6230  138.9816  166.2201 N.ar    1  UNL1       -0.2497
     20 C         141.8480  143.6889  159.3876 C.3     1  UNL1        0.0294
     21 C         141.7897  144.6167  160.5648 C.3     1  UNL1        0.0730
     22 N         140.8932  144.3006  161.7252 N.3     1  UNL1       -0.2724
     23 C         139.4008  144.4486  161.7520 C.3     1  UNL1        0.0724
     24 C         138.9169  144.0206  163.1058 C.3     1  UNL1        0.0214
     25 C         138.7371  143.5406  164.5156 C.3     1  UNL1        0.0072
     26 C         140.1103  143.6081  163.9156 C.3     1  UNL1        0.0350
     27 C         141.3317  143.7812  163.0623 C.3     1  UNL1        0.0761
     28 C         140.8358  143.1028  165.1273 C.ar    1  UNL1       -0.0215
     29 C         142.3272  142.9459  165.0973 C.ar    1  UNL1       -0.0043
     30 C         143.0528  142.4406  166.3089 C.ar    1  UNL1        0.0035
     31 C         142.2869  142.0922  167.5507 C.ar    1  UNL1        0.0714
     32 C         140.7955  142.2491  167.5808 C.ar    1  UNL1        0.0035
     33 C         140.0699  142.7544  166.3691 C.ar    1  UNL1       -0.0043
     34 C         143.0125  141.5869  168.7624 C.3     1  UNL1        0.4186
     35 F         143.7380  141.0816  169.9741 F       1  UNL1       -0.1659
     36 F         144.0133  142.6958  168.6256 F       1  UNL1       -0.1659
     37 F         142.0117  140.4779  168.8992 F       1  UNL1       -0.1659
@<TRIPOS>BOND
     1     9    10    1
     2    10    11   ar
     3    11    12   ar
     4    12    13   ar
     5    13    14   ar
     6    14     3    1
     7     3     4   ar
     8     4     5   ar
     9     5     6   ar
    10     6     2    1
    11     2     1    1
    12     1    20    1
    13    20    21    1
    14    21    22    1
    15    22    23    1
    16    24    23    1
    17    24    25    1
    18    25    26    1
    19    26    28    1
    20    28    29   ar
    21    29    30   ar
    22    30    31   ar
    23    31    34    1
    24    34    35    1
    25    34    36    1
    26    34    37    1
    27    31    32   ar
    28    32    33   ar
    29    26    27    1
    30     6     7   ar
    31     7     8    1
    32    14    15   ar
    33    15    16   ar
    34    16    17   ar
    35    17    18   ar
    36    18    19   ar
    37    19    10   ar
    38    18    13   ar
    39     7     3   ar
    40    27    22    1
    41    26    24    1
    42    33    28   ar
@<TRIPOS>MOLECULE
*****
 37 42 0 0 0
SMALL
GASTEIGER

@<TRIPOS>ATOM
      1 C         140.1124  143.7781  158.3944 C.3     1  UNL1        0.0666
      2 S         138.9390  142.8825  158.6609 S.3     1  UNL1       -0.0756
      3 C         139.0034  140.8106  161.9425 C.ar    1  UNL1        0.1669
      4 N         137.9536  141.8323  162.2653 N.ar    1  UNL1       -0.1282
      5 N         137.8017  142.7328  161.0753 N.ar    1  UNL1       -0.1221
      6 C         138.7576  142.2677  160.0170 C.ar    1  UNL1        0.1932
      7 N         139.5003  141.0796  160.5530 N.ar    1  UNL1       -0.2884
      8 C         140.5547  140.2979  159.8269 C.3     1  UNL1        0.1340
      9 C         145.2575  139.3815  164.4111 C.3     1  UNL1        0.0521
     10 C         143.8115  139.4643  164.0208 C.ar    1  UNL1        0.0593
     11 C         143.3413  140.5622  163.1134 C.ar    1  UNL1        0.0147
     12 C         141.8953  140.6450  162.7231 C.ar    1  UNL1        0.0028
     13 C         140.9196  139.6298  163.2402 C.ar    1  UNL1        0.0206
     14 C         139.4736  139.7126  162.8499 C.ar    1  UNL1        0.0374
     15 C         138.4979  138.6975  163.3669 C.ar    1  UNL1        0.0031
     16 C         138.9681  137.5995  164.2743 C.ar    1  UNL1        0.0016
     17 C         140.4141  137.5167  164.6646 C.ar    1  UNL1        0.0191
     18 C         141.3898  138.5319  164.1475 C.ar    1  UNL1        0.0810
     19 N         142.8358  138.4491  164.5379 N.ar    1  UNL1       -0.2497
     20 C         140.4080  144.9219  159.3186 C.3     1  UNL1        0.0294
     21 C         141.2091  144.6909  160.5655 C.3     1  UNL1        0.0730
     22 N         140.5286  144.6766  161.9023 N.3     1  UNL1       -0.2724
     23 C         139.4283  145.5966  162.3412 C.3     1  UNL1        0.0724
     24 C         139.0486  145.2285  163.7450 C.3     1  UNL1        0.0214
     25 C         138.8922  144.6425  165.1169 C.3     1  UNL1        0.0072
     26 C         139.9144  144.0811  164.1735 C.3     1  UNL1        0.0350
     27 C         140.8291  143.7400  163.0347 C.3     1  UNL1        0.0761
     28 C         140.4286  143.0270  165.1087 C.ar    1  UNL1       -0.0215
     29 C         139.4830  142.0259  165.7033 C.ar    1  UNL1       -0.0043
     30 C         139.9972  140.9718  166.6385 C.ar    1  UNL1        0.0035
     31 C         141.4571  140.9188  166.9791 C.ar    1  UNL1        0.0714
     32 C         142.4026  141.9199  166.3845 C.ar    1  UNL1        0.0035
     33 C         141.8885  142.9740  165.4493 C.ar    1  UNL1       -0.0043
     34 C         141.9712  139.8648  167.9142 C.3     1  UNL1        0.4186
     35 F         142.4854  138.8107  168.8494 F       1  UNL1       -0.1659
     36 F         143.3344  139.9847  167.2999 F       1  UNL1       -0.1659
     37 F         140.6081  139.7449  168.5286 F       1  UNL1       -0.1659
@<TRIPOS>BOND
     1     9    10    1
     2    10    11   ar
     3    11    12   ar
     4    12    13   ar
     5    13    14   ar
     6    14     3    1
     7     3     4   ar
     8     4     5   ar
     9     5     6   ar
    10     6     2    1
    11     2     1    1
    12     1    20    1
    13    20    21    1
    14    21    22    1
    15    22    23    1
    16    24    23    1
    17    24    25    1
    18    25    26    1
    19    26    28    1
    20    28    29   ar
    21    29    30   ar
    22    30    31   ar
    23    31    34    1
    24    34    35    1
    25    34    36    1
    26    34    37    1
    27    31    32   ar
    28    32    33   ar
    29    26    27    1
    30     6     7   ar
    31     7     8    1
    32    14    15   ar
    33    15    16   ar
    34    16    17   ar
    35    17    18   ar
    36    18    19   ar
    37    19    10   ar
    38    18    13   ar
    39     7     3   ar
    40    27    22    1
    41    26    24    1
    42    33    28   ar
@<TRIPOS>MOLECULE
*****
 37 42 0 0 0
SMALL
GASTEIGER

@<TRIPOS>ATOM
      1 C         142.0043  143.5130  158.3666 C.3     1  UNL1        0.0666
      2 S         143.3157  143.1316  158.9868 S.3     1  UNL1       -0.0756
      3 C         143.1570  141.5610  162.5327 C.ar    1  UNL1        0.1669
      4 N         143.8061  142.8805  162.8289 N.ar    1  UNL1       -0.1282
      5 N         143.9446  143.6295  161.5367 N.ar    1  UNL1       -0.1221
      6 C         143.3810  142.7729  160.4418 C.ar    1  UNL1        0.1932
      7 N         142.8943  141.4945  161.0574 N.ar    1  UNL1       -0.2884
      8 C         142.2568  140.3505  160.3261 C.3     1  UNL1        0.1340
      9 C         143.0688  141.7216  169.4042 C.3     1  UNL1        0.0521
     10 C         143.0087  141.4150  167.9371 C.ar    1  UNL1        0.0593
     11 C         143.3373  142.4808  166.9340 C.ar    1  UNL1        0.0147
     12 C         143.2772  142.1742  165.4669 C.ar    1  UNL1        0.0028
     13 C         142.8885  140.8018  165.0028 C.ar    1  UNL1        0.0206
     14 C         142.8284  140.4952  163.5357 C.ar    1  UNL1        0.0374
     15 C         142.4397  139.1228  163.0716 C.ar    1  UNL1        0.0031
     16 C         142.1110  138.0570  164.0747 C.ar    1  UNL1        0.0016
     17 C         142.1711  138.3636  165.5418 C.ar    1  UNL1        0.0191
     18 C         142.5599  139.7360  166.0059 C.ar    1  UNL1        0.0810
     19 N         142.6200  140.0426  167.4730 N.ar    1  UNL1       -0.2497
     20 C         141.0913  144.4712  159.0724 C.3     1  UNL1        0.0294
     21 C         139.9490  143.9516  159.8941 C.3     1  UNL1        0.0730
     22 N         140.0583  143.9111  161.3896 N.3     1  UNL1       -0.2724
     23 C         140.5662  145.0169  162.2667 C.3     1  UNL1        0.0724
     24 C         140.5007  144.5470  163.6897 C.3     1  UNL1        0.0214
     25 C         140.3212  143.8138  164.9860 C.3     1  UNL1        0.0072
     26 C         139.9524  143.1508  163.6920 C.3     1  UNL1        0.0350
     27 C         139.6790  142.7578  162.2705 C.3     1  UNL1        0.0761
     28 C         139.4959  141.8589  164.3024 C.ar    1  UNL1       -0.0215
     29 C         139.4757  141.6998  165.7937 C.ar    1  UNL1       -0.0043
     30 C         139.0192  140.4078  166.4041 C.ar    1  UNL1        0.0035
     31 C         138.5829  139.2750  165.5230 C.ar    1  UNL1        0.0714
     32 C         138.6031  139.4341  164.0317 C.ar    1  UNL1        0.0035
     33 C         139.0596  140.7260  163.4213 C.ar    1  UNL1       -0.0043
     34 C         138.1264  137.9830  166.1334 C.3     1  UNL1        0.4186
     35 F         137.6699  136.6911  166.7438 F       1  UNL1       -0.1659
     36 F         137.2890  138.7441  167.1180 F       1  UNL1       -0.1659
     37 F         138.9638  137.2220  165.1488 F       1  UNL1       -0.1659
@<TRIPOS>BOND
     1     9    10    1
     2    10    11   ar
     3    11    12   ar
     4    12    13   ar
     5    13    14   ar
     6    14     3    1
     7     3     4   ar
     8     4     5   ar
     9     5     6   ar
    10     6     2    1
    11     2     1    1
    12     1    20    1
    13    20    21    1
    14    21    22    1
    15    22    23    1
    16    24    23    1
    17    24    25    1
    18    25    26    1
    19    26    28    1
    20    28    29   ar
    21    29    30   ar
    22    30    31   ar
    23    31    34    1
    24    34    35    1
    25    34    36    1
    26    34    37    1
    27    31    32   ar
    28    32    33   ar
    29    26    27    1
    30     6     7   ar
    31     7     8    1
    32    14    15   ar
    33    15    16   ar
    34    16    17   ar
    35    17    18   ar
    36    18    19   ar
    37    19    10   ar
    38    18    13   ar
    39     7     3   ar
    40    27    22    1
    41    26    24    1
    42    33    28   ar
@<TRIPOS>MOLECULE
*****
 37 42 0 0 0
SMALL
GASTEIGER

@<TRIPOS>ATOM
      1 C         138.3574  141.6909  158.5398 C.3     1  UNL1        0.0666
      2 S         139.2999  142.8570  158.5814 S.3     1  UNL1       -0.0756
      3 C         142.1944  142.8451  161.1674 C.ar    1  UNL1        0.1669
      4 N         142.9057  142.3728  159.9340 N.ar    1  UNL1       -0.1282
      5 N         141.9080  142.3198  158.8152 N.ar    1  UNL1       -0.1221
      6 C         140.5801  142.7593  159.3570 C.ar    1  UNL1        0.1932
      7 N         140.7571  143.0840  160.8108 N.ar    1  UNL1       -0.2884
      8 C         139.6851  143.5633  161.7440 C.3     1  UNL1        0.1340
      9 C         143.4163  138.3871  166.2549 C.3     1  UNL1        0.0521
     10 C         143.2652  139.5512  165.3211 C.ar    1  UNL1        0.0593
     11 C         142.6476  139.3527  163.9687 C.ar    1  UNL1        0.0147
     12 C         142.4966  140.5168  163.0349 C.ar    1  UNL1        0.0028
     13 C         142.9631  141.8795  163.4536 C.ar    1  UNL1        0.0206
     14 C         142.8120  143.0437  162.5198 C.ar    1  UNL1        0.0374
     15 C         143.2786  144.4064  162.9384 C.ar    1  UNL1        0.0031
     16 C         143.8963  144.6050  164.2909 C.ar    1  UNL1        0.0016
     17 C         144.0473  143.4409  165.2247 C.ar    1  UNL1        0.0191
     18 C         143.5807  142.0781  164.8060 C.ar    1  UNL1        0.0810
     19 N         143.7318  140.9140  165.7398 N.ar    1  UNL1       -0.2497
     20 C         138.4872  140.5853  159.5452 C.3     1  UNL1        0.0294
     21 C         137.6916  140.6300  160.8160 C.3     1  UNL1        0.0730
     22 N         138.1399  139.8401  162.0099 N.3     1  UNL1       -0.2724
     23 C         138.1268  138.3453  162.1335 C.3     1  UNL1        0.0724
     24 C         138.6588  137.9877  163.4896 C.3     1  UNL1        0.0214
     25 C         139.2181  137.9406  164.8807 C.3     1  UNL1        0.0072
     26 C         139.0008  139.2615  164.2040 C.3     1  UNL1        0.0350
     27 C         138.6800  140.4064  163.2895 C.3     1  UNL1        0.0761
     28 C         139.4955  140.1040  165.3423 C.ar    1  UNL1       -0.0215
     29 C         139.7259  139.4847  166.6889 C.ar    1  UNL1       -0.0043
     30 C         140.2206  140.3272  167.8271 C.ar    1  UNL1        0.0035
     31 C         140.4850  141.7889  167.6187 C.ar    1  UNL1        0.0714
     32 C         140.2545  142.4082  166.2721 C.ar    1  UNL1        0.0035
     33 C         139.7598  141.5657  165.1339 C.ar    1  UNL1       -0.0043
     34 C         140.9797  142.6314  168.7569 C.3     1  UNL1        0.4186
     35 F         141.4744  143.4738  169.8951 F       1  UNL1       -0.1659
     36 F         142.2711  142.8575  168.0282 F       1  UNL1       -0.1659
     37 F         139.6882  142.4052  169.4856 F       1  UNL1       -0.1659
@<TRIPOS>BOND
     1     9    10    1
     2    10    11   ar
     3    11    12   ar
     4    12    13   ar
     5    13    14   ar
     6    14     3    1
     7     3     4   ar
     8     4     5   ar
     9     5     6   ar
    10     6     2    1
    11     2     1    1
    12     1    20    1
    13    20    21    1
    14    21    22    1
    15    22    23    1
    16    24    23    1
    17    24    25    1
    18    25    26    1
    19    26    28    1
    20    28    29   ar
    21    29    30   ar
    22    30    31   ar
    23    31    34    1
    24    34    35    1
    25    34    36    1
    26    34    37    1
    27    31    32   ar
    28    32    33   ar
    29    26    27    1
    30     6     7   ar
    31     7     8    1
    32    14    15   ar
    33    15    16   ar
    34    16    17   ar
    35    17    18   ar
    36    18    19   ar
    37    19    10   ar
    38    18    13   ar
    39     7     3   ar
    40    27    22    1
    41    26    24    1
    42    33    28   ar
@<TRIPOS>MOLECULE
*****
 37 42 0 0 0
SMALL
GASTEIGER

@<TRIPOS>ATOM
      1 C         140.7487  144.9379  158.9619 C.3     1  UNL1        0.0666
      2 S         140.1822  143.7239  158.2871 S.3     1  UNL1       -0.0756
      3 C         139.8489  140.6154  160.5876 C.ar    1  UNL1        0.1669
      4 N         138.4300  140.7947  160.1351 N.ar    1  UNL1       -0.1282
      5 N         138.3822  141.9809  159.2183 N.ar    1  UNL1       -0.1221
      6 C         139.7715  142.5349  159.1041 C.ar    1  UNL1        0.1932
      7 N         140.6780  141.6909  159.9504 N.ar    1  UNL1       -0.2884
      8 C         142.1543  141.8879  160.1283 C.3     1  UNL1        0.1340
      9 C         137.8609  138.8655  166.9308 C.3     1  UNL1        0.0521
     10 C         138.4833  139.0361  165.5767 C.ar    1  UNL1        0.0593
     11 C         137.9817  140.1034  164.6498 C.ar    1  UNL1        0.0147
     12 C         138.6041  140.2741  163.2957 C.ar    1  UNL1        0.0028
     13 C         139.7281  139.3775  162.8686 C.ar    1  UNL1        0.0206
     14 C         140.3505  139.5481  161.5145 C.ar    1  UNL1        0.0374
     15 C         141.4746  138.6515  161.0873 C.ar    1  UNL1        0.0031
     16 C         141.9763  137.5842  162.0143 C.ar    1  UNL1        0.0016
     17 C         141.3539  137.4135  163.3683 C.ar    1  UNL1        0.0191
     18 C         140.2298  138.3102  163.7955 C.ar    1  UNL1        0.0810
     19 N         139.6074  138.1395  165.1495 N.ar    1  UNL1       -0.2497
     20 C         140.2589  145.3370  160.3223 C.3     1  UNL1        0.0294
     21 C         141.1850  145.2752  161.5007 C.3     1  UNL1        0.0730
     22 N         140.7099  144.6911  162.7982 N.3     1  UNL1       -0.2724
     23 C         139.5740  145.2044  163.6325 C.3     1  UNL1        0.0724
     24 C         139.4494  144.3218  164.8390 C.3     1  UNL1        0.0214
     25 C         139.5674  143.2867  165.9182 C.3     1  UNL1        0.0072
     26 C         140.5083  143.2631  164.7502 C.3     1  UNL1        0.0350
     27 C         141.2873  143.4914  163.4889 C.3     1  UNL1        0.0761
     28 C         141.2824  142.0584  165.1968 C.ar    1  UNL1       -0.0215
     29 C         140.9810  141.4218  166.5211 C.ar    1  UNL1       -0.0043
     30 C         141.7552  140.2171  166.9677 C.ar    1  UNL1        0.0035
     31 C         142.8308  139.6490  166.0899 C.ar    1  UNL1        0.0714
     32 C         143.1321  140.2857  164.7656 C.ar    1  UNL1        0.0035
     33 C         142.3580  141.4904  164.3190 C.ar    1  UNL1       -0.0043
     34 C         143.6049  138.4443  166.5365 C.3     1  UNL1        0.4186
     35 F         144.3791  137.2397  166.9830 F       1  UNL1       -0.1659
     36 F         143.0909  138.6318  167.9331 F       1  UNL1       -0.1659
     37 F         144.1189  138.2569  165.1398 F       1  UNL1       -0.1659
@<TRIPOS>BOND
     1     9    10    1
     2    10    11   ar
     3    11    12   ar
     4    12    13   ar
     5    13    14   ar
     6    14     3    1
     7     3     4   ar
     8     4     5   ar
     9     5     6   ar
    10     6     2    1
    11     2     1    1
    12     1    20    1
    13    20    21    1
    14    21    22    1
    15    22    23    1
    16    24    23    1
    17    24    25    1
    18    25    26    1
    19    26    28    1
    20    28    29   ar
    21    29    30   ar
    22    30    31   ar
    23    31    34    1
    24    34    35    1
    25    34    36    1
    26    34    37    1
    27    31    32   ar
    28    32    33   ar
    29    26    27    1
    30     6     7   ar
    31     7     8    1
    32    14    15   ar
    33    15    16   ar
    34    16    17   ar
    35    17    18   ar
    36    18    19   ar
    37    19    10   ar
    38    18    13   ar
    39     7     3   ar
    40    27    22    1
    41    26    24    1
    42    33    28   ar
@<TRIPOS>MOLECULE
*****
 37 42 0 0 0
SMALL
GASTEIGER

@<TRIPOS>ATOM
      1 C         141.3695  141.4962  157.4951 C.3     1  UNL1        0.0666
      2 S         141.0349  142.8976  157.9121 S.3     1  UNL1       -0.0756
      3 C         141.1052  143.7260  161.7035 C.ar    1  UNL1        0.1669
      4 N         142.3825  144.3642  161.2436 N.ar    1  UNL1       -0.1282
      5 N         142.5116  144.1316  159.7674 N.ar    1  UNL1       -0.1221
      6 C         141.3141  143.3496  159.3149 C.ar    1  UNL1        0.1932
      7 N         140.4449  143.0990  160.5115 N.ar    1  UNL1       -0.2884
      8 C         139.1440  142.3524  160.5154 C.3     1  UNL1        0.1340
      9 C         142.3960  139.4899  166.9608 C.3     1  UNL1        0.0521
     10 C         141.9421  140.5466  165.9978 C.ar    1  UNL1        0.0593
     11 C         142.4669  140.5560  164.5927 C.ar    1  UNL1        0.0147
     12 C         142.0130  141.6127  163.6296 C.ar    1  UNL1        0.0028
     13 C         141.0343  142.6599  164.0717 C.ar    1  UNL1        0.0206
     14 C         140.5804  143.7166  163.1087 C.ar    1  UNL1        0.0374
     15 C         139.6017  144.7638  163.5508 C.ar    1  UNL1        0.0031
     16 C         139.0769  144.7544  164.9560 C.ar    1  UNL1        0.0016
     17 C         139.5308  143.6977  165.9190 C.ar    1  UNL1        0.0191
     18 C         140.5095  142.6504  165.4769 C.ar    1  UNL1        0.0810
     19 N         140.9634  141.5938  166.4399 N.ar    1  UNL1       -0.2497
     20 C         140.2727  140.5402  157.1302 C.3     1  UNL1        0.0294
     21 C         140.3800  139.0940  157.5136 C.3     1  UNL1        0.0730
     22 N         141.1042  138.7022  158.7675 N.3     1  UNL1       -0.2724
     23 C         142.5424  138.2867  158.8616 C.3     1  UNL1        0.0724
     24 C         142.8444  137.9848  160.2996 C.3     1  UNL1        0.0214
     25 C         142.8458  137.7600  161.7827 C.3     1  UNL1        0.0072
     26 C         141.5929  138.2138  161.0941 C.3     1  UNL1        0.0350
     27 C         140.5174  138.6572  160.1472 C.3     1  UNL1        0.0761
     28 C         140.7441  138.2637  162.3298 C.ar    1  UNL1       -0.0215
     29 C         141.0421  137.3505  163.4818 C.ar    1  UNL1       -0.0043
     30 C         140.1934  137.4003  164.7175 C.ar    1  UNL1        0.0035
     31 C         139.0465  138.3635  164.8013 C.ar    1  UNL1        0.0714
     32 C         138.7485  139.2768  163.6494 C.ar    1  UNL1        0.0035
     33 C         139.5973  139.2269  162.4136 C.ar    1  UNL1       -0.0043
     34 C         138.1977  138.4134  166.0371 C.3     1  UNL1        0.4186
     35 F         137.3490  138.4633  167.2728 F       1  UNL1       -0.1659
     36 F         138.2588  139.9120  166.0186 F       1  UNL1       -0.1659
     37 F         138.1366  136.9148  166.0556 F       1  UNL1       -0.1659
@<TRIPOS>BOND
     1     9    10    1
     2    10    11   ar
     3    11    12   ar
     4    12    13   ar
     5    13    14   ar
     6    14     3    1
     7     3     4   ar
     8     4     5   ar
     9     5     6   ar
    10     6     2    1
    11     2     1    1
    12     1    20    1
    13    20    21    1
    14    21    22    1
    15    22    23    1
    16    24    23    1
    17    24    25    1
    18    25    26    1
    19    26    28    1
    20    28    29   ar
    21    29    30   ar
    22    30    31   ar
    23    31    34    1
    24    34    35    1
    25    34    36    1
    26    34    37    1
    27    31    32   ar
    28    32    33   ar
    29    26    27    1
    30     6     7   ar
    31     7     8    1
    32    14    15   ar
    33    15    16   ar
    34    16    17   ar
    35    17    18   ar
    36    18    19   ar
    37    19    10   ar
    38    18    13   ar
    39     7     3   ar
    40    27    22    1
    41    26    24    1
    42    33    28   ar
@<TRIPOS>MOLECULE
*****
 37 42 0 0 0
SMALL
GASTEIGER

@<TRIPOS>ATOM
      1 C         139.1746  140.0049  156.7272 C.3     1  UNL1        0.0666
      2 S         138.3416  141.0305  157.4374 S.3     1  UNL1       -0.0756
      3 C         138.4059  141.6341  161.2711 C.ar    1  UNL1        0.1669
      4 N         137.7336  140.2950  161.1997 N.ar    1  UNL1       -0.1282
      5 N         137.6277  139.9059  159.7549 N.ar    1  UNL1       -0.1221
      6 C         138.2345  141.0045  158.9333 C.ar    1  UNL1        0.1932
      7 N         138.7155  142.0726  159.8704 N.ar    1  UNL1       -0.2884
      8 C         139.3879  143.3541  159.4760 C.3     1  UNL1        0.1340
      9 C         144.3669  142.7625  164.5026 C.3     1  UNL1        0.0521
     10 C         142.9538  142.6719  164.0078 C.ar    1  UNL1        0.0593
     11 C         142.6453  141.9059  162.7556 C.ar    1  UNL1        0.0147
     12 C         141.2322  141.8153  162.2608 C.ar    1  UNL1        0.0028
     13 C         140.1276  142.4907  163.0181 C.ar    1  UNL1        0.0206
     14 C         138.7144  142.4001  162.5233 C.ar    1  UNL1        0.0374
     15 C         137.6098  143.0755  163.2806 C.ar    1  UNL1        0.0031
     16 C         137.9183  143.8416  164.5328 C.ar    1  UNL1        0.0016
     17 C         139.3314  143.9322  165.0277 C.ar    1  UNL1        0.0191
     18 C         140.4361  143.2567  164.2703 C.ar    1  UNL1        0.0810
     19 N         141.8492  143.3473  164.7651 N.ar    1  UNL1       -0.2497
     20 C         140.5451  139.6689  157.2359 C.3     1  UNL1        0.0294
     21 C         140.7992  138.3410  157.8857 C.3     1  UNL1        0.0730
     22 N         141.4854  138.2771  159.2180 N.3     1  UNL1       -0.2724
     23 C         142.9653  138.1846  159.4439 C.3     1  UNL1        0.0724
     24 C         143.2067  138.1448  160.9238 C.3     1  UNL1        0.0214
     25 C         143.1356  138.1233  162.4220 C.3     1  UNL1        0.0072
     26 C         141.8759  138.2126  161.6125 C.3     1  UNL1        0.0350
     27 C         140.8120  138.2944  160.5583 C.3     1  UNL1        0.0761
     28 C         140.9392  138.2486  162.7836 C.ar    1  UNL1       -0.0215
     29 C         141.4101  138.7808  164.1046 C.ar    1  UNL1       -0.0043
     30 C         140.4734  138.8167  165.2756 C.ar    1  UNL1        0.0035
     31 C         139.0658  138.3205  165.1257 C.ar    1  UNL1        0.0714
     32 C         138.5950  137.7883  163.8047 C.ar    1  UNL1        0.0035
     33 C         139.5317  137.7523  162.6337 C.ar    1  UNL1       -0.0043
     34 C         138.1292  138.3564  166.2967 C.3     1  UNL1        0.4186
     35 F         137.1925  138.3924  167.4678 F       1  UNL1       -0.1659
     36 F         138.0065  136.8624  166.2445 F       1  UNL1       -0.1659
     37 F         138.2518  139.8505  166.3489 F       1  UNL1       -0.1659
@<TRIPOS>BOND
     1     9    10    1
     2    10    11   ar
     3    11    12   ar
     4    12    13   ar
     5    13    14   ar
     6    14     3    1
     7     3     4   ar
     8     4     5   ar
     9     5     6   ar
    10     6     2    1
    11     2     1    1
    12     1    20    1
    13    20    21    1
    14    21    22    1
    15    22    23    1
    16    24    23    1
    17    24    25    1
    18    25    26    1
    19    26    28    1
    20    28    29   ar
    21    29    30   ar
    22    30    31   ar
    23    31    34    1
    24    34    35    1
    25    34    36    1
    26    34    37    1
    27    31    32   ar
    28    32    33   ar
    29    26    27    1
    30     6     7   ar
    31     7     8    1
    32    14    15   ar
    33    15    16   ar
    34    16    17   ar
    35    17    18   ar
    36    18    19   ar
    37    19    10   ar
    38    18    13   ar
    39     7     3   ar
    40    27    22    1
    41    26    24    1
    42    33    28   ar
@<TRIPOS>MOLECULE
*****
 37 42 0 0 0
SMALL
GASTEIGER

@<TRIPOS>ATOM
      1 C         143.4857  137.6701  161.4897 C.3     1  UNL1        0.0666
      2 S         144.0230  138.7438  160.5907 S.3     1  UNL1       -0.0756
      3 C         142.8431  142.3907  161.2024 C.ar    1  UNL1        0.1669
      4 N         144.2209  142.4285  161.7945 N.ar    1  UNL1       -0.1282
      5 N         144.8305  141.0671  161.6374 N.ar    1  UNL1       -0.1221
      6 C         143.8296  140.1877  160.9482 C.ar    1  UNL1        0.1932
      7 N         142.6013  141.0058  160.6794 N.ar    1  UNL1       -0.2884
      8 C         141.3509  140.5235  160.0058 C.3     1  UNL1        0.1340
      9 C         138.4879  144.8507  165.9172 C.3     1  UNL1        0.0521
     10 C         139.3351  144.5222  164.7238 C.ar    1  UNL1        0.0593
     11 C         140.3013  143.3764  164.7826 C.ar    1  UNL1        0.0147
     12 C         141.1486  143.0478  163.5892 C.ar    1  UNL1        0.0028
     13 C         141.0297  143.8651  162.3370 C.ar    1  UNL1        0.0206
     14 C         141.8769  143.5365  161.1437 C.ar    1  UNL1        0.0374
     15 C         141.7580  144.3538  159.8915 C.ar    1  UNL1        0.0031
     16 C         140.7918  145.4997  159.8327 C.ar    1  UNL1        0.0016
     17 C         139.9445  145.8282  161.0261 C.ar    1  UNL1        0.0191
     18 C         140.0635  145.0109  162.2783 C.ar    1  UNL1        0.0810
     19 N         139.2162  145.3395  163.4717 N.ar    1  UNL1       -0.2497
     20 C         142.6936  138.0395  162.7088 C.3     1  UNL1        0.0294
     21 C         141.2481  137.6520  162.8098 C.3     1  UNL1        0.0730
     22 N         140.4285  138.1111  163.9793 N.3     1  UNL1       -0.2724
     23 C         138.9957  137.7556  164.2455 C.3     1  UNL1        0.0724
     24 C         138.5794  138.4311  165.5184 C.3     1  UNL1        0.0214
     25 C         138.4573  139.2152  166.7914 C.3     1  UNL1        0.0072
     26 C         139.7549  139.2041  166.0389 C.3     1  UNL1        0.0350
     27 C         140.8976  139.0063  165.0876 C.3     1  UNL1        0.0761
     28 C         140.4953  140.0969  166.9900 C.ar    1  UNL1       -0.0215
     29 C         139.7402  140.8981  168.0087 C.ar    1  UNL1       -0.0043
     30 C         140.4807  141.7910  168.9597 C.ar    1  UNL1        0.0035
     31 C         141.9763  141.8826  168.8921 C.ar    1  UNL1        0.0714
     32 C         142.7315  141.0814  167.8734 C.ar    1  UNL1        0.0035
     33 C         141.9910  140.1886  166.9223 C.ar    1  UNL1       -0.0043
     34 C         142.7168  142.7755  169.8432 C.3     1  UNL1        0.4186
     35 F         143.4572  143.6683  170.7942 F       1  UNL1       -0.1659
     36 F         141.5206  143.6765  169.9286 F       1  UNL1       -0.1659
     37 F         143.9130  141.8745  169.7577 F       1  UNL1       -0.1659
@<TRIPOS>BOND
     1     9    10    1
     2    10    11   ar
     3    11    12   ar
     4    12    13   ar
     5    13    14   ar
     6    14     3    1
     7     3     4   ar
     8     4     5   ar
     9     5     6   ar
    10     6     2    1
    11     2     1    1
    12     1    20    1
    13    20    21    1
    14    21    22    1
    15    22    23    1
    16    24    23    1
    17    24    25    1
    18    25    26    1
    19    26    28    1
    20    28    29   ar
    21    29    30   ar
    22    30    31   ar
    23    31    34    1
    24    34    35    1
    25    34    36    1
    26    34    37    1
    27    31    32   ar
    28    32    33   ar
    29    26    27    1
    30     6     7   ar
    31     7     8    1
    32    14    15   ar
    33    15    16   ar
    34    16    17   ar
    35    17    18   ar
    36    18    19   ar
    37    19    10   ar
    38    18    13   ar
    39     7     3   ar
    40    27    22    1
    41    26    24    1
    42    33    28   ar
