@<TRIPOS>MOLECULE
*****
 31 34 0 0 0
SMALL
GASTEIGER

@<TRIPOS>ATOM
      1 O         139.2619  144.2243  164.9498 O.2     1  UNL1       -0.2522
      2 C         140.1824  143.4868  164.0232 C.2     1  UNL1        0.3078
      3 N         140.8478  142.2214  164.4772 N.am    1  UNL1       -0.2681
      4 N         140.4376  144.0147  162.6425 N.am    1  UNL1       -0.2611
      5 C         139.7723  145.2800  162.1885 C.3     1  UNL1        0.1123
      6 C         140.0275  145.8078  160.8078 C.3     1  UNL1        0.0940
      7 N         140.9480  145.0703  159.8812 N.3     1  UNL1       -0.2697
      8 C         141.6133  143.8049  160.3352 C.3     1  UNL1        0.0940
      9 C         141.3581  143.2771  161.7158 C.3     1  UNL1        0.1123
     10 H         141.4519  141.7374  163.8690 H       1  UNL1        0.1564
     11 C         140.5926  141.6935  165.8579 C.ar    1  UNL1        0.0524
     12 C         139.7402  140.4742  166.0490 C.ar    1  UNL1        0.0147
     13 C         139.4850  139.9464  167.4297 C.ar    1  UNL1        0.0060
     14 C         140.0823  140.6379  168.6192 C.ar    1  UNL1        0.0820
     15 C         140.9348  141.8572  168.4281 C.ar    1  UNL1        0.0628
     16 CL        141.5321  142.5487  169.6177 Cl      1  UNL1       -0.0823
     17 C         141.1899  142.3850  167.0475 C.ar    1  UNL1        0.0260
     18 C         139.8272  140.1100  169.9999 C.3     1  UNL1        0.4194
     19 F         139.5720  139.5822  171.3806 F       1  UNL1       -0.1658
     20 F         141.0743  139.2811  169.9135 F       1  UNL1       -0.1658
     21 F         138.5801  140.9390  170.0863 F       1  UNL1       -0.1658
     22 C         141.2032  145.5982  158.5004 C.3     1  UNL1        0.0735
     23 C         140.1696  145.4228  157.4276 C.3     1  UNL1        0.0320
     24 C         139.7943  146.5809  156.5512 C.3     1  UNL1        0.0042
     25 C         138.7608  146.4056  155.4784 C.3     1  UNL1        0.0174
     26 C         138.1025  145.0721  155.2818 C.3     1  UNL1        0.0720
     27 N         138.4778  143.9140  156.1582 N.3     1  UNL1       -0.2739
     28 C         139.5114  144.0894  157.2311 C.3     1  UNL1        0.0734
     29 C         137.8196  142.5806  155.9617 C.3     1  UNL1        0.0576
     30 C         136.6490  141.6664  156.1708 C.3     1  UNL1        0.0173
     31 C         137.8502  141.1852  155.4122 C.3     1  UNL1        0.0173
@<TRIPOS>BOND
     1     1     2    2
     2     2     3   am
     3     3    11    1
     4    11    12   ar
     5    12    13   ar
     6    13    14   ar
     7    14    18    1
     8    18    19    1
     9    18    20    1
    10    18    21    1
    11    14    15   ar
    12    15    16    1
    13    15    17   ar
    14     2     4   am
    15     4     5    1
    16     5     6    1
    17     6     7    1
    18     7    22    1
    19    23    22    1
    20    23    24    1
    21    24    25    1
    22    25    26    1
    23    26    27    1
    24    27    29    1
    25    29    30    1
    26    30    31    1
    27    27    28    1
    28     7     8    1
    29     8     9    1
    30    17    11   ar
    31     9     4    1
    32    28    23    1
    33    31    29    1
    34     3    10    1
@<TRIPOS>MOLECULE
*****
 31 34 0 0 0
SMALL
GASTEIGER

@<TRIPOS>ATOM
      1 O         141.8731  141.4649  160.5119 O.2     1  UNL1       -0.2522
      2 C         140.7686  140.5568  160.0587 C.2     1  UNL1        0.3078
      3 N         139.4169  140.6400  160.7037 N.am    1  UNL1       -0.2681
      4 N         141.0158  139.5654  158.9604 N.am    1  UNL1       -0.2611
      5 C         142.3674  139.4821  158.3154 C.3     1  UNL1        0.1123
      6 C         142.6145  138.4908  157.2172 C.3     1  UNL1        0.0940
      7 N         141.5100  137.5827  156.7640 N.3     1  UNL1       -0.2697
      8 C         140.1584  137.6659  157.4091 C.3     1  UNL1        0.0940
      9 C         139.9112  138.6572  158.5073 C.3     1  UNL1        0.1123
     10 H         138.6920  140.0439  160.4063 H       1  UNL1        0.1564
     11 C         139.1698  141.6314  161.8020 C.ar    1  UNL1        0.0524
     12 C         138.4294  142.9032  161.5117 C.ar    1  UNL1        0.0147
     13 C         138.1823  143.8945  162.6099 C.ar    1  UNL1        0.0060
     14 C         138.6755  143.6140  163.9985 C.ar    1  UNL1        0.0820
     15 C         139.4158  142.3422  164.2888 C.ar    1  UNL1        0.0628
     16 CL        139.9090  142.0617  165.6774 Cl      1  UNL1       -0.0823
     17 C         139.6630  141.3509  163.1906 C.ar    1  UNL1        0.0260
     18 C         138.4283  144.6054  165.0968 C.3     1  UNL1        0.4194
     19 F         138.1812  145.5967  166.1950 F       1  UNL1       -0.1658
     20 F         137.0310  144.0830  165.2539 F       1  UNL1       -0.1658
     21 F         139.8256  145.1278  164.9396 F       1  UNL1       -0.1658
     22 C         141.7572  136.5913  155.6658 C.3     1  UNL1        0.0735
     23 C         142.1148  135.1737  156.0015 C.3     1  UNL1        0.0320
     24 C         143.1648  134.8896  157.0343 C.3     1  UNL1        0.0042
     25 C         143.5224  133.4721  157.3700 C.3     1  UNL1        0.0174
     26 C         142.8300  132.3386  156.6728 C.3     1  UNL1        0.0720
     27 N         141.7800  132.6228  155.6400 N.3     1  UNL1       -0.2739
     28 C         141.4224  134.0404  155.3043 C.3     1  UNL1        0.0734
     29 C         141.0876  131.4894  154.9428 C.3     1  UNL1        0.0576
     30 C         141.1507  130.2485  154.1026 C.3     1  UNL1        0.0173
     31 C         139.8251  130.7674  154.5756 C.3     1  UNL1        0.0173
@<TRIPOS>BOND
     1     1     2    2
     2     2     3   am
     3     3    11    1
     4    11    12   ar
     5    12    13   ar
     6    13    14   ar
     7    14    18    1
     8    18    19    1
     9    18    20    1
    10    18    21    1
    11    14    15   ar
    12    15    16    1
    13    15    17   ar
    14     2     4   am
    15     4     5    1
    16     5     6    1
    17     6     7    1
    18     7    22    1
    19    23    22    1
    20    23    24    1
    21    24    25    1
    22    25    26    1
    23    26    27    1
    24    27    29    1
    25    29    30    1
    26    30    31    1
    27    27    28    1
    28     7     8    1
    29     8     9    1
    30    17    11   ar
    31     9     4    1
    32    28    23    1
    33    31    29    1
    34     3    10    1
@<TRIPOS>MOLECULE
*****
 31 34 0 0 0
SMALL
GASTEIGER

@<TRIPOS>ATOM
      1 O         142.0185  140.8526  160.9311 O.2     1  UNL1       -0.2522
      2 C         140.8404  140.2635  160.2133 C.2     1  UNL1        0.3078
      3 N         139.4477  140.6471  160.6169 N.am    1  UNL1       -0.2681
      4 N         141.0553  139.2908  159.0918 N.am    1  UNL1       -0.2611
      5 C         142.4480  138.9072  158.6881 C.3     1  UNL1        0.1123
      6 C         142.6628  137.9346  157.5667 C.3     1  UNL1        0.0940
      7 N         141.4848  137.3455  156.8488 N.3     1  UNL1       -0.2697
      8 C         140.0920  137.7291  157.2525 C.3     1  UNL1        0.0940
      9 C         139.8773  138.7018  158.3739 C.3     1  UNL1        0.1123
     10 H         138.6745  140.2605  160.1458 H       1  UNL1        0.1564
     11 C         139.2328  141.6199  161.7385 C.ar    1  UNL1        0.0524
     12 C         138.8967  141.1188  163.1118 C.ar    1  UNL1        0.0147
     13 C         138.6819  142.0915  164.2332 C.ar    1  UNL1        0.0060
     14 C         138.8032  143.5653  163.9813 C.ar    1  UNL1        0.0820
     15 C         139.1393  144.0663  162.6080 C.ar    1  UNL1        0.0628
     16 CL        139.2606  145.5400  162.3562 Cl      1  UNL1       -0.0823
     17 C         139.3541  143.0936  161.4866 C.ar    1  UNL1        0.0260
     18 C         138.5884  144.5380  165.1029 C.3     1  UNL1        0.4194
     19 F         138.3735  145.5106  166.2243 F       1  UNL1       -0.1658
     20 F         140.0691  144.7592  165.1947 F       1  UNL1       -0.1658
     21 F         137.1077  144.3168  165.0110 F       1  UNL1       -0.1658
     22 C         141.6996  136.3728  155.7273 C.3     1  UNL1        0.0735
     23 C         142.0839  134.9544  156.0280 C.3     1  UNL1        0.0320
     24 C         143.1545  134.6654  157.0380 C.3     1  UNL1        0.0042
     25 C         143.5388  133.2470  157.3387 C.3     1  UNL1        0.0174
     26 C         142.8523  132.1175  156.6293 C.3     1  UNL1        0.0720
     27 N         141.7817  132.4065  155.6193 N.3     1  UNL1       -0.2739
     28 C         141.3974  133.8250  155.3186 C.3     1  UNL1        0.0734
     29 C         141.0952  131.2771  154.9100 C.3     1  UNL1        0.0576
     30 C         141.1579  130.0804  154.0078 C.3     1  UNL1        0.0173
     31 C         139.8436  130.5176  154.5835 C.3     1  UNL1        0.0173
@<TRIPOS>BOND
     1     1     2    2
     2     2     3   am
     3     3    11    1
     4    11    12   ar
     5    12    13   ar
     6    13    14   ar
     7    14    18    1
     8    18    19    1
     9    18    20    1
    10    18    21    1
    11    14    15   ar
    12    15    16    1
    13    15    17   ar
    14     2     4   am
    15     4     5    1
    16     5     6    1
    17     6     7    1
    18     7    22    1
    19    23    22    1
    20    23    24    1
    21    24    25    1
    22    25    26    1
    23    26    27    1
    24    27    29    1
    25    29    30    1
    26    30    31    1
    27    27    28    1
    28     7     8    1
    29     8     9    1
    30    17    11   ar
    31     9     4    1
    32    28    23    1
    33    31    29    1
    34     3    10    1
@<TRIPOS>MOLECULE
*****
 31 34 0 0 0
SMALL
GASTEIGER

@<TRIPOS>ATOM
      1 O         142.1371  138.8505  161.3825 O.2     1  UNL1       -0.2522
      2 C         140.9927  138.5017  160.4776 C.2     1  UNL1        0.3078
      3 N         139.6060  138.3777  161.0359 N.am    1  UNL1       -0.2681
      4 N         141.2351  138.2768  159.0145 N.am    1  UNL1       -0.2611
      5 C         142.6218  138.4007  158.4562 C.3     1  UNL1        0.1123
      6 C         142.8641  138.1758  156.9932 C.3     1  UNL1        0.0940
      7 N         141.7197  137.8270  156.0883 N.3     1  UNL1       -0.2697
      8 C         140.3331  137.7030  156.6466 C.3     1  UNL1        0.0940
      9 C         140.0907  137.9279  158.1096 C.3     1  UNL1        0.1123
     10 H         138.8549  138.1488  160.4420 H       1  UNL1        0.1564
     11 C         139.3636  138.6026  162.4990 C.ar    1  UNL1        0.0524
     12 C         139.5446  137.4749  163.4713 C.ar    1  UNL1        0.0147
     13 C         139.3022  137.6998  164.9343 C.ar    1  UNL1        0.0060
     14 C         138.8789  139.0525  165.4252 C.ar    1  UNL1        0.0820
     15 C         138.6979  140.1803  164.4529 C.ar    1  UNL1        0.0628
     16 CL        138.2745  141.5330  164.9437 Cl      1  UNL1       -0.0823
     17 C         138.9402  139.9553  162.9899 C.ar    1  UNL1        0.0260
     18 C         138.6365  139.2774  166.8883 C.3     1  UNL1        0.4194
     19 F         138.3940  139.5023  168.3514 F       1  UNL1       -0.1658
     20 F         140.0193  139.8408  167.0308 F       1  UNL1       -0.1658
     21 F         137.2537  138.7140  166.7458 F       1  UNL1       -0.1658
     22 C         141.9621  137.6021  154.6252 C.3     1  UNL1        0.0735
     23 C         142.0291  136.2055  154.0820 C.3     1  UNL1        0.0320
     24 C         141.5462  135.9177  152.6913 C.3     1  UNL1        0.0042
     25 C         141.6132  134.5211  152.1482 C.3     1  UNL1        0.0174
     26 C         142.1631  133.4123  152.9957 C.3     1  UNL1        0.0720
     27 N         142.6459  133.7001  154.3864 N.3     1  UNL1       -0.2739
     28 C         142.5789  135.0968  154.9296 C.3     1  UNL1        0.0734
     29 C         143.1957  132.5914  155.2339 C.3     1  UNL1        0.0576
     30 C         142.9742  131.4081  156.1288 C.3     1  UNL1        0.0173
     31 C         144.3697  131.8543  155.8071 C.3     1  UNL1        0.0173
@<TRIPOS>BOND
     1     1     2    2
     2     2     3   am
     3     3    11    1
     4    11    12   ar
     5    12    13   ar
     6    13    14   ar
     7    14    18    1
     8    18    19    1
     9    18    20    1
    10    18    21    1
    11    14    15   ar
    12    15    16    1
    13    15    17   ar
    14     2     4   am
    15     4     5    1
    16     5     6    1
    17     6     7    1
    18     7    22    1
    19    23    22    1
    20    23    24    1
    21    24    25    1
    22    25    26    1
    23    26    27    1
    24    27    29    1
    25    29    30    1
    26    30    31    1
    27    27    28    1
    28     7     8    1
    29     8     9    1
    30    17    11   ar
    31     9     4    1
    32    28    23    1
    33    31    29    1
    34     3    10    1
@<TRIPOS>MOLECULE
*****
 31 34 0 0 0
SMALL
GASTEIGER

@<TRIPOS>ATOM
      1 O         139.8316  144.1124  164.6895 O.2     1  UNL1       -0.2522
      2 C         140.6458  143.2224  163.7979 C.2     1  UNL1        0.3078
      3 N         141.1594  141.9110  164.3141 N.am    1  UNL1       -0.2681
      4 N         140.9463  143.6438  162.3900 N.am    1  UNL1       -0.2611
      5 C         140.4327  144.9551  161.8737 C.3     1  UNL1        0.1123
      6 C         140.7332  145.3764  160.4659 C.3     1  UNL1        0.0940
      7 N         141.5474  144.4864  159.5742 N.3     1  UNL1       -0.2697
      8 C         142.0610  143.1751  160.0905 C.3     1  UNL1        0.0940
      9 C         141.7604  142.7537  161.4983 C.3     1  UNL1        0.1123
     10 H         141.6937  141.3269  163.7289 H       1  UNL1        0.1564
     11 C         140.8589  141.4897  165.7221 C.ar    1  UNL1        0.0524
     12 C         139.9240  140.3452  165.9790 C.ar    1  UNL1        0.0147
     13 C         139.6235  139.9238  167.3869 C.ar    1  UNL1        0.0060
     14 C         140.2579  140.6470  168.5378 C.ar    1  UNL1        0.0820
     15 C         141.1928  141.7915  168.2808 C.ar    1  UNL1        0.0628
     16 CL        141.8272  142.5147  169.4317 Cl      1  UNL1       -0.0823
     17 C         141.4933  142.2128  166.8729 C.ar    1  UNL1        0.0260
     18 C         139.9574  140.2256  169.9457 C.3     1  UNL1        0.4194
     19 F         139.6569  139.8043  171.3536 F       1  UNL1       -0.1658
     20 F         141.1304  139.2912  169.9165 F       1  UNL1       -0.1658
     21 F         138.7844  141.1601  169.9750 F       1  UNL1       -0.1658
     22 C         141.8479  144.9078  158.1663 C.3     1  UNL1        0.0735
     23 C         140.7264  145.2412  157.2277 C.3     1  UNL1        0.0320
     24 C         139.7378  144.1838  156.8347 C.3     1  UNL1        0.0042
     25 C         138.6163  144.5173  155.8961 C.3     1  UNL1        0.0174
     26 C         138.4835  145.9082  155.3503 C.3     1  UNL1        0.0720
     27 N         139.4721  146.9656  155.7433 N.3     1  UNL1       -0.2739
     28 C         140.5936  146.6321  156.6820 C.3     1  UNL1        0.0734
     29 C         139.3393  148.3565  155.1976 C.3     1  UNL1        0.0576
     30 C         139.5987  149.3550  154.1087 C.3     1  UNL1        0.0173
     31 C         138.8500  149.7671  155.3414 C.3     1  UNL1        0.0173
@<TRIPOS>BOND
     1     1     2    2
     2     2     3   am
     3     3    11    1
     4    11    12   ar
     5    12    13   ar
     6    13    14   ar
     7    14    18    1
     8    18    19    1
     9    18    20    1
    10    18    21    1
    11    14    15   ar
    12    15    16    1
    13    15    17   ar
    14     2     4   am
    15     4     5    1
    16     5     6    1
    17     6     7    1
    18     7    22    1
    19    23    22    1
    20    23    24    1
    21    24    25    1
    22    25    26    1
    23    26    27    1
    24    27    29    1
    25    29    30    1
    26    30    31    1
    27    27    28    1
    28     7     8    1
    29     8     9    1
    30    17    11   ar
    31     9     4    1
    32    28    23    1
    33    31    29    1
    34     3    10    1
@<TRIPOS>MOLECULE
*****
 31 34 0 0 0
SMALL
GASTEIGER

@<TRIPOS>ATOM
      1 O         143.8776  140.8023  163.3712 O.2     1  UNL1       -0.2522
      2 C         142.9092  139.7807  162.8530 C.2     1  UNL1        0.3078
      3 N         141.9973  139.0621  163.8028 N.am    1  UNL1       -0.2681
      4 N         142.8527  139.4777  161.3850 N.am    1  UNL1       -0.2611
      5 C         143.7645  140.1963  160.4352 C.3     1  UNL1        0.1123
      6 C         143.7080  139.8933  158.9673 C.3     1  UNL1        0.0940
      7 N         142.7395  138.8717  158.4491 N.3     1  UNL1       -0.2697
      8 C         141.8276  138.1532  159.3988 C.3     1  UNL1        0.0940
      9 C         141.8842  138.4562  160.8668 C.3     1  UNL1        0.1123
     10 H         141.3617  138.3917  163.4626 H       1  UNL1        0.1564
     11 C         142.0538  139.3651  165.2708 C.ar    1  UNL1        0.0524
     12 C         142.9665  138.5786  166.1643 C.ar    1  UNL1        0.0147
     13 C         143.0229  138.8816  167.6323 C.ar    1  UNL1        0.0060
     14 C         142.1668  139.9711  168.2067 C.ar    1  UNL1        0.0820
     15 C         141.2542  140.7576  167.3132 C.ar    1  UNL1        0.0628
     16 CL        140.3980  141.8472  167.8876 Cl      1  UNL1       -0.0823
     17 C         141.1977  140.4546  165.8453 C.ar    1  UNL1        0.0260
     18 C         142.2233  140.2741  169.6748 C.3     1  UNL1        0.4194
     19 F         142.2798  140.5770  171.1428 F       1  UNL1       -0.1658
     20 F         143.4818  141.0625  169.4637 F       1  UNL1       -0.1658
     21 F         140.9649  139.4857  169.8859 F       1  UNL1       -0.1658
     22 C         142.6830  138.5688  156.9810 C.3     1  UNL1        0.0735
     23 C         142.3715  137.1779  156.5137 C.3     1  UNL1        0.0320
     24 C         141.1424  136.9199  155.6935 C.3     1  UNL1        0.0042
     25 C         140.8309  135.5290  155.2262 C.3     1  UNL1        0.0174
     26 C         141.7485  134.3961  155.5791 C.3     1  UNL1        0.0720
     27 N         142.9776  134.6541  156.3993 N.3     1  UNL1       -0.2739
     28 C         143.2891  136.0450  156.8666 C.3     1  UNL1        0.0734
     29 C         143.8952  133.5212  156.7522 C.3     1  UNL1        0.0576
     30 C         144.7650  132.8168  157.7508 C.3     1  UNL1        0.0173
     31 C         144.6148  132.2634  156.3648 C.3     1  UNL1        0.0173
@<TRIPOS>BOND
     1     1     2    2
     2     2     3   am
     3     3    11    1
     4    11    12   ar
     5    12    13   ar
     6    13    14   ar
     7    14    18    1
     8    18    19    1
     9    18    20    1
    10    18    21    1
    11    14    15   ar
    12    15    16    1
    13    15    17   ar
    14     2     4   am
    15     4     5    1
    16     5     6    1
    17     6     7    1
    18     7    22    1
    19    23    22    1
    20    23    24    1
    21    24    25    1
    22    25    26    1
    23    26    27    1
    24    27    29    1
    25    29    30    1
    26    30    31    1
    27    27    28    1
    28     7     8    1
    29     8     9    1
    30    17    11   ar
    31     9     4    1
    32    28    23    1
    33    31    29    1
    34     3    10    1
@<TRIPOS>MOLECULE
*****
 31 34 0 0 0
SMALL
GASTEIGER

@<TRIPOS>ATOM
      1 O         141.3168  140.2414  163.3752 O.2     1  UNL1       -0.2522
      2 C         140.0798  140.9678  162.9368 C.2     1  UNL1        0.3078
      3 N         139.0638  141.3994  163.9523 N.am    1  UNL1       -0.2681
      4 N         139.8588  141.2625  161.4826 N.am    1  UNL1       -0.2611
      5 C         140.8748  140.8309  160.4670 C.3     1  UNL1        0.1123
      6 C         140.6537  141.1257  159.0130 C.3     1  UNL1        0.0940
      7 N         139.4167  141.8520  158.5746 N.3     1  UNL1       -0.2697
      8 C         138.4008  142.2837  159.5902 C.3     1  UNL1        0.0940
      9 C         138.6218  141.9889  161.0442 C.3     1  UNL1        0.1123
     10 H         138.2520  141.8761  163.6646 H       1  UNL1        0.1564
     11 C         139.2848  141.1046  165.4065 C.ar    1  UNL1        0.0524
     12 C         138.7105  139.8598  166.0151 C.ar    1  UNL1        0.0147
     13 C         138.9315  139.5651  167.4691 C.ar    1  UNL1        0.0060
     14 C         139.7269  140.5152  168.3145 C.ar    1  UNL1        0.0820
     15 C         140.3012  141.7601  167.7059 C.ar    1  UNL1        0.0628
     16 CL        141.0966  142.7102  168.5512 Cl      1  UNL1       -0.0823
     17 C         140.0802  142.0548  166.2518 C.ar    1  UNL1        0.0260
     18 C         139.9479  140.2205  169.7686 C.3     1  UNL1        0.4194
     19 F         140.1689  139.9257  171.2226 F       1  UNL1       -0.1658
     20 F         138.7233  141.0142  170.1157 F       1  UNL1       -0.1658
     21 F         141.1724  139.4268  169.4216 F       1  UNL1       -0.1658
     22 C         139.1957  142.1468  157.1205 C.3     1  UNL1        0.0735
     23 C         138.3646  141.2189  156.2850 C.3     1  UNL1        0.0320
     24 C         139.0171  140.3617  155.2412 C.3     1  UNL1        0.0042
     25 C         138.1859  139.4338  154.4058 C.3     1  UNL1        0.0174
     26 C         136.7021  139.3630  154.6141 C.3     1  UNL1        0.0720
     27 N         136.0495  140.2201  155.6579 N.3     1  UNL1       -0.2739
     28 C         136.8808  141.1481  156.4934 C.3     1  UNL1        0.0734
     29 C         134.5658  140.1493  155.8662 C.3     1  UNL1        0.0576
     30 C         133.2138  140.7964  155.8099 C.3     1  UNL1        0.0173
     31 C         133.3479  139.3795  156.2835 C.3     1  UNL1        0.0173
@<TRIPOS>BOND
     1     1     2    2
     2     2     3   am
     3     3    11    1
     4    11    12   ar
     5    12    13   ar
     6    13    14   ar
     7    14    18    1
     8    18    19    1
     9    18    20    1
    10    18    21    1
    11    14    15   ar
    12    15    16    1
    13    15    17   ar
    14     2     4   am
    15     4     5    1
    16     5     6    1
    17     6     7    1
    18     7    22    1
    19    23    22    1
    20    23    24    1
    21    24    25    1
    22    25    26    1
    23    26    27    1
    24    27    29    1
    25    29    30    1
    26    30    31    1
    27    27    28    1
    28     7     8    1
    29     8     9    1
    30    17    11   ar
    31     9     4    1
    32    28    23    1
    33    31    29    1
    34     3    10    1
@<TRIPOS>MOLECULE
*****
 31 34 0 0 0
SMALL
GASTEIGER

@<TRIPOS>ATOM
      1 O         143.2209  139.1409  164.0490 O.2     1  UNL1       -0.2522
      2 C         142.2698  139.9747  163.2425 C.2     1  UNL1        0.3078
      3 N         141.5629  141.1340  163.8798 N.am    1  UNL1       -0.2681
      4 N         142.0258  139.6491  161.7987 N.am    1  UNL1       -0.2611
      5 C         142.7327  138.4898  161.1614 C.3     1  UNL1        0.1123
      6 C         142.4887  138.1642  159.7177 C.3     1  UNL1        0.0940
      7 N         141.5376  138.9980  158.9113 N.3     1  UNL1       -0.2697
      8 C         140.8307  140.1573  159.5485 C.3     1  UNL1        0.0940
      9 C         141.0747  140.4828  160.9922 C.3     1  UNL1        0.1123
     10 H         140.9387  141.6812  163.3505 H       1  UNL1        0.1564
     11 C         141.8069  141.4596  165.3236 C.ar    1  UNL1        0.0524
     12 C         143.0507  142.1947  165.7268 C.ar    1  UNL1        0.0147
     13 C         143.2947  142.5203  167.1705 C.ar    1  UNL1        0.0060
     14 C         142.2949  142.1107  168.2111 C.ar    1  UNL1        0.0820
     15 C         141.0512  141.3756  167.8079 C.ar    1  UNL1        0.0628
     16 CL        140.0514  140.9661  168.8484 Cl      1  UNL1       -0.0823
     17 C         140.8072  141.0501  166.3641 C.ar    1  UNL1        0.0260
     18 C         142.5390  142.4363  169.6549 C.3     1  UNL1        0.4194
     19 F         142.7830  142.7620  171.0986 F       1  UNL1       -0.1658
     20 F         143.5090  141.2960  169.7481 F       1  UNL1       -0.1658
     21 F         141.5690  143.5767  169.5616 F       1  UNL1       -0.1658
     22 C         141.2936  138.6724  157.4674 C.3     1  UNL1        0.0735
     23 C         142.1766  137.6868  156.7612 C.3     1  UNL1        0.0320
     24 C         143.4805  138.1362  156.1714 C.3     1  UNL1        0.0042
     25 C         144.3635  137.1506  155.4652 C.3     1  UNL1        0.0174
     26 C         143.9427  135.7155  155.3488 C.3     1  UNL1        0.0720
     27 N         142.6388  135.2661  155.9386 N.3     1  UNL1       -0.2739
     28 C         141.7558  136.2518  156.6449 C.3     1  UNL1        0.0734
     29 C         142.2180  133.8311  155.8222 C.3     1  UNL1        0.0576
     30 C         141.2672  132.7943  155.3017 C.3     1  UNL1        0.0173
     31 C         142.4399  132.3823  156.1412 C.3     1  UNL1        0.0173
@<TRIPOS>BOND
     1     1     2    2
     2     2     3   am
     3     3    11    1
     4    11    12   ar
     5    12    13   ar
     6    13    14   ar
     7    14    18    1
     8    18    19    1
     9    18    20    1
    10    18    21    1
    11    14    15   ar
    12    15    16    1
    13    15    17   ar
    14     2     4   am
    15     4     5    1
    16     5     6    1
    17     6     7    1
    18     7    22    1
    19    23    22    1
    20    23    24    1
    21    24    25    1
    22    25    26    1
    23    26    27    1
    24    27    29    1
    25    29    30    1
    26    30    31    1
    27    27    28    1
    28     7     8    1
    29     8     9    1
    30    17    11   ar
    31     9     4    1
    32    28    23    1
    33    31    29    1
    34     3    10    1
@<TRIPOS>MOLECULE
*****
 31 34 0 0 0
SMALL
GASTEIGER

@<TRIPOS>ATOM
      1 O         140.4122  138.6275  163.4108 O.2     1  UNL1       -0.2522
      2 C         139.5061  139.7020  162.8868 C.2     1  UNL1        0.3078
      3 N         138.8347  140.6470  163.8386 N.am    1  UNL1       -0.2681
      4 N         139.2713  139.8313  161.4109 N.am    1  UNL1       -0.2611
      5 C         139.9427  138.8862  160.4590 C.3     1  UNL1        0.1123
      6 C         139.7079  139.0156  158.9832 C.3     1  UNL1        0.0940
      7 N         138.8018  140.0900  158.4592 N.3     1  UNL1       -0.2697
      8 C         138.1304  141.0351  159.4111 C.3     1  UNL1        0.0940
      9 C         138.3652  140.9057  160.8869 C.3     1  UNL1        0.1123
     10 H         138.2400  141.3522  163.4947 H       1  UNL1        0.1564
     11 C         139.0695  140.5177  165.3146 C.ar    1  UNL1        0.0524
     12 C         138.3907  139.4272  166.0892 C.ar    1  UNL1        0.0147
     13 C         138.6255  139.2980  167.5650 C.ar    1  UNL1        0.0060
     14 C         139.5390  140.2591  168.2662 C.ar    1  UNL1        0.0820
     15 C         140.2177  141.3496  167.4916 C.ar    1  UNL1        0.0628
     16 CL        141.1313  142.3108  168.1927 Cl      1  UNL1       -0.0823
     17 C         139.9830  141.4789  166.0157 C.ar    1  UNL1        0.0260
     18 C         139.7737  140.1298  169.7421 C.3     1  UNL1        0.4194
     19 F         140.0085  140.0004  171.2180 F       1  UNL1       -0.1658
     20 F         138.4963  140.8688  170.0101 F       1  UNL1       -0.1658
     21 F         141.0512  139.3908  169.4741 F       1  UNL1       -0.1658
     22 C         138.5670  140.2194  156.9833 C.3     1  UNL1        0.0735
     23 C         138.1271  141.5321  156.4061 C.3     1  UNL1        0.0320
     24 C         136.7746  141.6558  155.7694 C.3     1  UNL1        0.0042
     25 C         136.3347  142.9685  155.1921 C.3     1  UNL1        0.0174
     26 C         137.2473  144.1575  155.2515 C.3     1  UNL1        0.0720
     27 N         138.5998  144.0338  155.8882 N.3     1  UNL1       -0.2739
     28 C         139.0397  142.7210  156.4655 C.3     1  UNL1        0.0734
     29 C         139.5124  145.2227  155.9476 C.3     1  UNL1        0.0576
     30 C         140.5302  146.1128  155.2982 C.3     1  UNL1        0.0173
     31 C         140.0753  146.3919  156.7000 C.3     1  UNL1        0.0173
@<TRIPOS>BOND
     1     1     2    2
     2     2     3   am
     3     3    11    1
     4    11    12   ar
     5    12    13   ar
     6    13    14   ar
     7    14    18    1
     8    18    19    1
     9    18    20    1
    10    18    21    1
    11    14    15   ar
    12    15    16    1
    13    15    17   ar
    14     2     4   am
    15     4     5    1
    16     5     6    1
    17     6     7    1
    18     7    22    1
    19    23    22    1
    20    23    24    1
    21    24    25    1
    22    25    26    1
    23    26    27    1
    24    27    29    1
    25    29    30    1
    26    30    31    1
    27    27    28    1
    28     7     8    1
    29     8     9    1
    30    17    11   ar
    31     9     4    1
    32    28    23    1
    33    31    29    1
    34     3    10    1
