@<TRIPOS>MOLECULE
*****
 28 31 0 0 0
SMALL
GASTEIGER

@<TRIPOS>ATOM
      1 C         141.4775  138.9759  163.6393 C.ar    1  UNL1        0.0878
      2 C         140.7743  138.1633  162.5927 C.ar    1  UNL1        0.0091
      3 C         139.3992  137.6264  162.8585 C.ar    1  UNL1        0.0194
      4 C         138.7273  137.9019  164.1710 C.ar    1  UNL1        0.0844
      5 N         139.4304  138.7143  165.2176 N.ar    1  UNL1       -0.2576
      6 C         138.7584  138.9898  166.5300 C.ar    1  UNL1        0.2672
      7 O         137.3833  138.4529  166.7959 O.2     1  UNL1       -0.2665
      8 C         139.4616  139.8024  167.5767 C.ar    1  UNL1        0.0742
      9 C         138.7896  140.0779  168.8891 C.ar    1  UNL1        0.0063
     10 C         139.4928  140.8903  169.9358 C.ar    1  UNL1        0.0003
     11 C         140.8679  141.4273  169.6700 C.ar    1  UNL1        0.0015
     12 C         141.5711  142.2398  170.7166 C.ar    1  UNL1        0.0000
     13 C         142.9462  142.7768  170.4507 C.ar    1  UNL1        0.0000
     14 C         143.6181  142.5013  169.1383 C.ar    1  UNL1        0.0000
     15 C         142.9150  141.6888  168.0917 C.ar    1  UNL1        0.0015
     16 C         141.5399  141.1518  168.3575 C.ar    1  UNL1        0.0179
     17 C         140.8367  140.3393  167.3108 C.ar    1  UNL1        0.0875
     18 N         141.5087  140.0638  165.9984 N.ar    1  UNL1       -0.2276
     19 C         140.8056  139.2514  164.9518 C.ar    1  UNL1        0.1543
     20 N         143.8965  139.4676  164.4497 N.am    1  UNL1       -0.2994
     21 C         142.8526  139.5128  163.3735 C.2     1  UNL1        0.2488
     22 O         143.1840  140.0950  162.0313 O.2     1  UNL1       -0.2700
     23 H         143.6790  139.0855  165.3306 H       1  UNL1        0.1498
     24 C         145.2716  140.0046  164.1838 C.3     1  UNL1        0.1065
     25 N         145.7690  141.9684  162.5571 N.3     1  UNL1       -0.3197
     26 C         145.4699  141.4714  163.9404 C.3     1  UNL1        0.0867
     27 H         145.8728  142.9829  162.5754 H       1  UNL1        0.1189
     28 H         145.0033  141.7162  161.9322 H       1  UNL1        0.1189
@<TRIPOS>BOND
     1    25    26    1
     2    26    24    1
     3    24    20    1
     4    20    21   am
     5    21    22    2
     6    21     1    1
     7     1     2   ar
     8     2     3   ar
     9     3     4   ar
    10     4     5   ar
    11     5     6   ar
    12     6     7    2
    13     6     8   ar
    14     8     9   ar
    15     9    10   ar
    16    10    11   ar
    17    11    12   ar
    18    12    13   ar
    19    13    14   ar
    20    14    15   ar
    21    15    16   ar
    22    16    17   ar
    23    17    18   ar
    24    18    19   ar
    25    19     1   ar
    26    19     5   ar
    27    17     8   ar
    28    16    11   ar
    29    25    27    1
    30    25    28    1
    31    20    23    1
@<TRIPOS>MOLECULE
*****
 28 31 0 0 0
SMALL
GASTEIGER

@<TRIPOS>ATOM
      1 C         139.3799  139.8128  167.6663 C.ar    1  UNL1        0.0878
      2 C         138.1173  139.1111  168.0710 C.ar    1  UNL1        0.0091
      3 C         137.4566  138.1517  167.1261 C.ar    1  UNL1        0.0194
      4 C         138.0584  137.8937  165.7765 C.ar    1  UNL1        0.0844
      5 N         139.3210  138.5953  165.3719 N.ar    1  UNL1       -0.2576
      6 C         139.9228  138.3374  164.0223 C.ar    1  UNL1        0.2672
      7 O         139.2621  137.3779  163.0774 O.2     1  UNL1       -0.2665
      8 C         141.1854  139.0391  163.6177 C.ar    1  UNL1        0.0742
      9 C         141.7872  138.7812  162.2681 C.ar    1  UNL1        0.0063
     10 C         143.0498  139.4827  161.8635 C.ar    1  UNL1        0.0003
     11 C         143.7105  140.4423  162.8084 C.ar    1  UNL1        0.0015
     12 C         144.9730  141.1438  162.4037 C.ar    1  UNL1        0.0000
     13 C         145.6337  142.1033  163.3486 C.ar    1  UNL1        0.0000
     14 C         145.0319  142.3612  164.6982 C.ar    1  UNL1        0.0000
     15 C         143.7693  141.6596  165.1028 C.ar    1  UNL1        0.0015
     16 C         143.1087  140.7002  164.1579 C.ar    1  UNL1        0.0179
     17 C         141.8461  139.9985  164.5626 C.ar    1  UNL1        0.0875
     18 N         141.2442  140.2564  165.9121 N.ar    1  UNL1       -0.2276
     19 C         139.9817  139.5549  166.3168 C.ar    1  UNL1        0.1543
     20 N         140.4906  142.1168  168.1218 N.am    1  UNL1       -0.2994
     21 C         140.0405  140.7722  168.6112 C.2     1  UNL1        0.2488
     22 O         140.2512  140.3871  170.0456 O.2     1  UNL1       -0.2700
     23 H         140.3524  142.3696  167.1804 H       1  UNL1        0.1498
     24 C         141.1513  143.0763  169.0668 C.3     1  UNL1        0.1065
     25 N         139.4620  143.2962  171.0284 N.3     1  UNL1       -0.3197
     26 C         140.3161  143.9324  169.9720 C.3     1  UNL1        0.0867
     27 H         138.9663  144.0213  171.5470 H       1  UNL1        0.1189
     28 H         140.0522  142.7641  171.6678 H       1  UNL1        0.1189
@<TRIPOS>BOND
     1    25    26    1
     2    26    24    1
     3    24    20    1
     4    20    21   am
     5    21    22    2
     6    21     1    1
     7     1     2   ar
     8     2     3   ar
     9     3     4   ar
    10     4     5   ar
    11     5     6   ar
    12     6     7    2
    13     6     8   ar
    14     8     9   ar
    15     9    10   ar
    16    10    11   ar
    17    11    12   ar
    18    12    13   ar
    19    13    14   ar
    20    14    15   ar
    21    15    16   ar
    22    16    17   ar
    23    17    18   ar
    24    18    19   ar
    25    19     1   ar
    26    19     5   ar
    27    17     8   ar
    28    16    11   ar
    29    25    27    1
    30    25    28    1
    31    20    23    1
@<TRIPOS>MOLECULE
*****
 28 31 0 0 0
SMALL
GASTEIGER

@<TRIPOS>ATOM
      1 C         142.7409  140.2679  162.3498 C.ar    1  UNL1        0.0878
      2 C         142.8629  139.7624  160.9427 C.ar    1  UNL1        0.0091
      3 C         141.8709  138.7693  160.4140 C.ar    1  UNL1        0.0194
      4 C         140.7570  138.2816  161.2923 C.ar    1  UNL1        0.0844
      5 N         140.6350  138.7870  162.6992 N.ar    1  UNL1       -0.2576
      6 C         139.5211  138.2993  163.5775 C.ar    1  UNL1        0.2672
      7 O         138.5292  137.3061  163.0488 O.2     1  UNL1       -0.2665
      8 C         139.3992  138.8047  164.9845 C.ar    1  UNL1        0.0742
      9 C         138.2853  138.3170  165.8628 C.ar    1  UNL1        0.0063
     10 C         138.1633  138.8224  167.2697 C.ar    1  UNL1        0.0003
     11 C         139.1553  139.8157  167.7985 C.ar    1  UNL1        0.0015
     12 C         139.0334  140.3211  169.2055 C.ar    1  UNL1        0.0000
     13 C         140.0253  141.3142  169.7342 C.ar    1  UNL1        0.0000
     14 C         141.1392  141.8020  168.8560 C.ar    1  UNL1        0.0000
     15 C         141.2612  141.2965  167.4490 C.ar    1  UNL1        0.0015
     16 C         140.2692  140.3034  166.9203 C.ar    1  UNL1        0.0179
     17 C         140.3912  139.7979  165.5133 C.ar    1  UNL1        0.0875
     18 N         141.5051  140.2856  164.6350 N.ar    1  UNL1       -0.2276
     19 C         141.6270  139.7802  163.2280 C.ar    1  UNL1        0.1543
     20 N         143.2686  142.4014  163.7354 N.am    1  UNL1       -0.2994
     21 C         143.7329  141.2611  162.8785 C.2     1  UNL1        0.2488
     22 O         145.1892  141.1140  162.5504 O.2     1  UNL1       -0.2700
     23 H         142.3129  142.4979  163.9508 H       1  UNL1        0.1498
     24 C         144.2607  143.3945  164.2641 C.3     1  UNL1        0.1065
     25 N         143.5597  145.3848  162.7484 N.3     1  UNL1       -0.3197
     26 C         144.0240  144.8638  164.0761 C.3     1  UNL1        0.0867
     27 H         143.4511  146.3977  162.7997 H       1  UNL1        0.1189
     28 H         142.6643  144.9585  162.5101 H       1  UNL1        0.1189
@<TRIPOS>BOND
     1    25    26    1
     2    26    24    1
     3    24    20    1
     4    20    21   am
     5    21    22    2
     6    21     1    1
     7     1     2   ar
     8     2     3   ar
     9     3     4   ar
    10     4     5   ar
    11     5     6   ar
    12     6     7    2
    13     6     8   ar
    14     8     9   ar
    15     9    10   ar
    16    10    11   ar
    17    11    12   ar
    18    12    13   ar
    19    13    14   ar
    20    14    15   ar
    21    15    16   ar
    22    16    17   ar
    23    17    18   ar
    24    18    19   ar
    25    19     1   ar
    26    19     5   ar
    27    17     8   ar
    28    16    11   ar
    29    25    27    1
    30    25    28    1
    31    20    23    1
@<TRIPOS>MOLECULE
*****
 28 31 0 0 0
SMALL
GASTEIGER

@<TRIPOS>ATOM
      1 C         142.9122  141.8908  163.5569 C.ar    1  UNL1        0.0878
      2 C         143.5923  141.2635  162.3761 C.ar    1  UNL1        0.0091
      3 C         144.2139  139.9044  162.5034 C.ar    1  UNL1        0.0194
      4 C         144.1555  139.1724  163.8114 C.ar    1  UNL1        0.0844
      5 N         143.4755  139.7997  164.9921 N.ar    1  UNL1       -0.2576
      6 C         143.4171  139.0677  166.3001 C.ar    1  UNL1        0.2672
      7 O         144.0387  137.7086  166.4274 O.2     1  UNL1       -0.2665
      8 C         142.7370  139.6950  167.4808 C.ar    1  UNL1        0.0742
      9 C         142.6786  138.9631  168.7888 C.ar    1  UNL1        0.0063
     10 C         141.9986  139.5903  169.9695 C.ar    1  UNL1        0.0003
     11 C         141.3769  140.9495  169.8423 C.ar    1  UNL1        0.0015
     12 C         140.6969  141.5767  171.0230 C.ar    1  UNL1        0.0000
     13 C         140.0752  142.9359  170.8957 C.ar    1  UNL1        0.0000
     14 C         140.1337  143.6678  169.5877 C.ar    1  UNL1        0.0000
     15 C         140.8137  143.0406  168.4070 C.ar    1  UNL1        0.0015
     16 C         141.4353  141.6814  168.5343 C.ar    1  UNL1        0.0179
     17 C         142.1154  141.0542  167.3536 C.ar    1  UNL1        0.0875
     18 N         142.1738  141.7861  166.0456 N.ar    1  UNL1       -0.2276
     19 C         142.8538  141.1589  164.8649 C.ar    1  UNL1        0.1543
     20 N         140.8797  143.4752  163.8862 N.am    1  UNL1       -0.2994
     21 C         142.2906  143.2500  163.4296 C.2     1  UNL1        0.2488
     22 O         143.0799  144.3840  162.8456 O.2     1  UNL1       -0.2700
     23 H         140.3616  142.7309  164.2695 H       1  UNL1        0.1498
     24 C         140.2580  144.8344  163.7589 C.3     1  UNL1        0.1065
     25 N         140.6930  145.8231  161.3960 N.3     1  UNL1       -0.3197
     26 C         139.7406  145.3010  162.4305 C.3     1  UNL1        0.0867
     27 H         140.1733  146.0936  160.5611 H       1  UNL1        0.1189
     28 H         141.3668  145.0958  161.1563 H       1  UNL1        0.1189
@<TRIPOS>BOND
     1    25    26    1
     2    26    24    1
     3    24    20    1
     4    20    21   am
     5    21    22    2
     6    21     1    1
     7     1     2   ar
     8     2     3   ar
     9     3     4   ar
    10     4     5   ar
    11     5     6   ar
    12     6     7    2
    13     6     8   ar
    14     8     9   ar
    15     9    10   ar
    16    10    11   ar
    17    11    12   ar
    18    12    13   ar
    19    13    14   ar
    20    14    15   ar
    21    15    16   ar
    22    16    17   ar
    23    17    18   ar
    24    18    19   ar
    25    19     1   ar
    26    19     5   ar
    27    17     8   ar
    28    16    11   ar
    29    25    27    1
    30    25    28    1
    31    20    23    1
@<TRIPOS>MOLECULE
*****
 28 31 0 0 0
SMALL
GASTEIGER

@<TRIPOS>ATOM
      1 C         140.3250  142.1119  161.0015 C.ar    1  UNL1        0.0878
      2 C         140.1209  141.7894  159.5508 C.ar    1  UNL1        0.0091
      3 C         139.4372  140.5144  159.1549 C.ar    1  UNL1        0.0194
      4 C         138.9576  139.5617  160.2097 C.ar    1  UNL1        0.0844
      5 N         139.1617  139.8842  161.6603 N.ar    1  UNL1       -0.2576
      6 C         138.6821  138.9315  162.7151 C.ar    1  UNL1        0.2672
      7 O         137.9985  137.6565  162.3192 O.2     1  UNL1       -0.2665
      8 C         138.8863  139.2540  164.1657 C.ar    1  UNL1        0.0742
      9 C         138.4067  138.3014  165.2205 C.ar    1  UNL1        0.0063
     10 C         138.6108  138.6238  166.6711 C.ar    1  UNL1        0.0003
     11 C         139.2945  139.8990  167.0670 C.ar    1  UNL1        0.0015
     12 C         139.4986  140.2214  168.5177 C.ar    1  UNL1        0.0000
     13 C         140.1822  141.4965  168.9135 C.ar    1  UNL1        0.0000
     14 C         140.6618  142.4491  167.8588 C.ar    1  UNL1        0.0000
     15 C         140.4577  142.1266  166.4082 C.ar    1  UNL1        0.0015
     16 C         139.7741  140.8516  166.0123 C.ar    1  UNL1        0.0179
     17 C         139.5699  140.5291  164.5616 C.ar    1  UNL1        0.0875
     18 N         140.0495  141.4817  163.5069 N.ar    1  UNL1       -0.2276
     19 C         139.8454  141.1593  162.0562 C.ar    1  UNL1        0.1543
     20 N         140.4981  144.1812  162.5629 N.am    1  UNL1       -0.2994
     21 C         141.0087  143.3870  161.3974 C.2     1  UNL1        0.2488
     22 O         142.2030  143.8679  160.6276 O.2     1  UNL1       -0.2700
     23 H         139.7143  143.8656  163.0681 H       1  UNL1        0.1498
     24 C         141.1819  145.4563  162.9588 C.3     1  UNL1        0.1065
     25 N         143.7738  145.3024  162.8697 N.3     1  UNL1       -0.3197
     26 C         142.5054  145.4102  163.6631 C.3     1  UNL1        0.0867
     27 H         144.5717  145.2838  163.5049 H       1  UNL1        0.1189
     28 H         143.8542  146.1058  162.2463 H       1  UNL1        0.1189
@<TRIPOS>BOND
     1    25    26    1
     2    26    24    1
     3    24    20    1
     4    20    21   am
     5    21    22    2
     6    21     1    1
     7     1     2   ar
     8     2     3   ar
     9     3     4   ar
    10     4     5   ar
    11     5     6   ar
    12     6     7    2
    13     6     8   ar
    14     8     9   ar
    15     9    10   ar
    16    10    11   ar
    17    11    12   ar
    18    12    13   ar
    19    13    14   ar
    20    14    15   ar
    21    15    16   ar
    22    16    17   ar
    23    17    18   ar
    24    18    19   ar
    25    19     1   ar
    26    19     5   ar
    27    17     8   ar
    28    16    11   ar
    29    25    27    1
    30    25    28    1
    31    20    23    1
@<TRIPOS>MOLECULE
*****
 28 31 0 0 0
SMALL
GASTEIGER

@<TRIPOS>ATOM
      1 C         141.5883  143.8107  161.0649 C.ar    1  UNL1        0.0878
      2 C         140.9553  144.9750  160.3621 C.ar    1  UNL1        0.0091
      3 C         139.9921  145.8605  161.0957 C.ar    1  UNL1        0.0194
      4 C         139.6618  145.5817  162.5321 C.ar    1  UNL1        0.0844
      5 N         140.2947  144.4175  163.2349 N.ar    1  UNL1       -0.2576
      6 C         139.9644  144.1388  164.6713 C.ar    1  UNL1        0.2672
      7 O         139.0012  145.0243  165.4048 O.2     1  UNL1       -0.2665
      8 C         140.5974  142.9745  165.3741 C.ar    1  UNL1        0.0742
      9 C         140.2671  142.6958  166.8105 C.ar    1  UNL1        0.0063
     10 C         140.9000  141.5315  167.5133 C.ar    1  UNL1        0.0003
     11 C         141.8632  140.6460  166.7797 C.ar    1  UNL1        0.0015
     12 C         142.4961  139.4818  167.4826 C.ar    1  UNL1        0.0000
     13 C         143.4593  138.5963  166.7490 C.ar    1  UNL1        0.0000
     14 C         143.7896  138.8751  165.3126 C.ar    1  UNL1        0.0000
     15 C         143.1567  140.0393  164.6098 C.ar    1  UNL1        0.0015
     16 C         142.1935  140.9247  165.3434 C.ar    1  UNL1        0.0179
     17 C         141.5606  142.0890  164.6405 C.ar    1  UNL1        0.0875
     18 N         141.8909  142.3678  163.2041 N.ar    1  UNL1       -0.2276
     19 C         141.2580  143.5320  162.5013 C.ar    1  UNL1        0.1543
     20 N         142.4252  141.4340  160.4320 N.am    1  UNL1       -0.2994
     21 C         142.5515  142.9253  160.3314 C.2     1  UNL1        0.2488
     22 O         143.6411  143.5311  159.4971 O.2     1  UNL1       -0.2700
     23 H         141.7101  141.0364  160.9795 H       1  UNL1        0.1498
     24 C         143.3884  140.5485  159.6984 C.3     1  UNL1        0.1065
     25 N         144.4701  138.9279  161.4170 N.3     1  UNL1       -0.3197
     26 C         143.6443  139.1530  160.1852 C.3     1  UNL1        0.0867
     27 H         144.5410  137.9271  161.6006 H       1  UNL1        0.1189
     28 H         144.0276  139.3890  162.2120 H       1  UNL1        0.1189
@<TRIPOS>BOND
     1    25    26    1
     2    26    24    1
     3    24    20    1
     4    20    21   am
     5    21    22    2
     6    21     1    1
     7     1     2   ar
     8     2     3   ar
     9     3     4   ar
    10     4     5   ar
    11     5     6   ar
    12     6     7    2
    13     6     8   ar
    14     8     9   ar
    15     9    10   ar
    16    10    11   ar
    17    11    12   ar
    18    12    13   ar
    19    13    14   ar
    20    14    15   ar
    21    15    16   ar
    22    16    17   ar
    23    17    18   ar
    24    18    19   ar
    25    19     1   ar
    26    19     5   ar
    27    17     8   ar
    28    16    11   ar
    29    25    27    1
    30    25    28    1
    31    20    23    1
@<TRIPOS>MOLECULE
*****
 28 31 0 0 0
SMALL
GASTEIGER

@<TRIPOS>ATOM
      1 C         143.3876  140.3238  162.5447 C.ar    1  UNL1        0.0878
      2 C         144.6227  140.9654  161.9851 C.ar    1  UNL1        0.0091
      3 C         145.3929  141.9545  162.8087 C.ar    1  UNL1        0.0194
      4 C         144.9282  142.3021  164.1919 C.ar    1  UNL1        0.0844
      5 N         143.6932  141.6606  164.7515 N.ar    1  UNL1       -0.2576
      6 C         143.2285  142.0081  166.1347 C.ar    1  UNL1        0.2672
      7 O         143.9988  142.9973  166.9583 O.2     1  UNL1       -0.2665
      8 C         141.9935  141.3665  166.6943 C.ar    1  UNL1        0.0742
      9 C         141.5287  141.7141  168.0775 C.ar    1  UNL1        0.0063
     10 C         140.2938  141.0726  168.6371 C.ar    1  UNL1        0.0003
     11 C         139.5235  140.0834  167.8136 C.ar    1  UNL1        0.0015
     12 C         138.2885  139.4418  168.3732 C.ar    1  UNL1        0.0000
     13 C         137.5182  138.4527  167.5496 C.ar    1  UNL1        0.0000
     14 C         137.9830  138.1051  166.1664 C.ar    1  UNL1        0.0000
     15 C         139.2179  138.7467  165.6068 C.ar    1  UNL1        0.0015
     16 C         139.9882  139.7358  166.4304 C.ar    1  UNL1        0.0179
     17 C         141.2232  140.3774  165.8707 C.ar    1  UNL1        0.0875
     18 N         141.6879  140.0298  164.4876 N.ar    1  UNL1       -0.2276
     19 C         142.9229  140.6714  163.9279 C.ar    1  UNL1        0.1543
     20 N         141.6415  139.8167  160.6890 N.am    1  UNL1       -0.2994
     21 C         142.6174  139.3347  161.7212 C.2     1  UNL1        0.2488
     22 O         142.8230  137.8635  161.9297 O.2     1  UNL1       -0.2700
     23 H         141.5065  140.7822  160.5521 H       1  UNL1        0.1498
     24 C         140.8712  138.8274  159.8654 C.3     1  UNL1        0.1065
     25 N         139.5182  137.6181  161.7246 N.3     1  UNL1       -0.3197
     26 C         139.5742  138.2742  160.3770 C.3     1  UNL1        0.0867
     27 H         138.5660  137.3027  161.9099 H       1  UNL1        0.1189
     28 H         139.8000  138.2876  162.4407 H       1  UNL1        0.1189
@<TRIPOS>BOND
     1    25    26    1
     2    26    24    1
     3    24    20    1
     4    20    21   am
     5    21    22    2
     6    21     1    1
     7     1     2   ar
     8     2     3   ar
     9     3     4   ar
    10     4     5   ar
    11     5     6   ar
    12     6     7    2
    13     6     8   ar
    14     8     9   ar
    15     9    10   ar
    16    10    11   ar
    17    11    12   ar
    18    12    13   ar
    19    13    14   ar
    20    14    15   ar
    21    15    16   ar
    22    16    17   ar
    23    17    18   ar
    24    18    19   ar
    25    19     1   ar
    26    19     5   ar
    27    17     8   ar
    28    16    11   ar
    29    25    27    1
    30    25    28    1
    31    20    23    1
@<TRIPOS>MOLECULE
*****
 28 31 0 0 0
SMALL
GASTEIGER

@<TRIPOS>ATOM
      1 C         139.6570  140.3551  167.7940 C.ar    1  UNL1        0.0878
      2 C         138.6096  139.4080  168.2998 C.ar    1  UNL1        0.0091
      3 C         137.7211  138.6854  167.3311 C.ar    1  UNL1        0.0194
      4 C         137.8800  138.9099  165.8565 C.ar    1  UNL1        0.0844
      5 N         138.9274  139.8570  165.3507 N.ar    1  UNL1       -0.2576
      6 C         139.0864  140.0815  163.8761 C.ar    1  UNL1        0.2672
      7 O         138.1979  139.3589  162.9074 O.2     1  UNL1       -0.2665
      8 C         140.1338  141.0286  163.3703 C.ar    1  UNL1        0.0742
      9 C         140.2928  141.2531  161.8957 C.ar    1  UNL1        0.0063
     10 C         141.3402  142.2002  161.3899 C.ar    1  UNL1        0.0003
     11 C         142.2287  142.9228  162.3586 C.ar    1  UNL1        0.0015
     12 C         143.2761  143.8699  161.8527 C.ar    1  UNL1        0.0000
     13 C         144.1646  144.5925  162.8214 C.ar    1  UNL1        0.0000
     14 C         144.0057  144.3680  164.2960 C.ar    1  UNL1        0.0000
     15 C         142.9583  143.4209  164.8019 C.ar    1  UNL1        0.0015
     16 C         142.0698  142.6983  163.8331 C.ar    1  UNL1        0.0179
     17 C         141.0223  141.7512  164.3390 C.ar    1  UNL1        0.0875
     18 N         140.8634  141.5267  165.8135 N.ar    1  UNL1       -0.2276
     19 C         139.8160  140.5796  166.3194 C.ar    1  UNL1        0.1543
     20 N         141.9550  140.6122  168.9785 N.am    1  UNL1       -0.2994
     21 C         140.5455  141.0777  168.7627 C.2     1  UNL1        0.2488
     22 O         140.0245  142.2659  169.5156 O.2     1  UNL1       -0.2700
     23 H         142.2970  139.8324  168.4843 H       1  UNL1        0.1498
     24 C         142.8435  141.3348  169.9473 C.3     1  UNL1        0.1065
     25 N         144.8939  142.9039  170.2364 N.3     1  UNL1       -0.3197
     26 C         143.6555  142.5093  169.4877 C.3     1  UNL1        0.0867
     27 H         145.3174  143.7167  169.7888 H       1  UNL1        0.1189
     28 H         145.5566  142.1285  170.2301 H       1  UNL1        0.1189
@<TRIPOS>BOND
     1    25    26    1
     2    26    24    1
     3    24    20    1
     4    20    21   am
     5    21    22    2
     6    21     1    1
     7     1     2   ar
     8     2     3   ar
     9     3     4   ar
    10     4     5   ar
    11     5     6   ar
    12     6     7    2
    13     6     8   ar
    14     8     9   ar
    15     9    10   ar
    16    10    11   ar
    17    11    12   ar
    18    12    13   ar
    19    13    14   ar
    20    14    15   ar
    21    15    16   ar
    22    16    17   ar
    23    17    18   ar
    24    18    19   ar
    25    19     1   ar
    26    19     5   ar
    27    17     8   ar
    28    16    11   ar
    29    25    27    1
    30    25    28    1
    31    20    23    1
@<TRIPOS>MOLECULE
*****
 28 31 0 0 0
SMALL
GASTEIGER

@<TRIPOS>ATOM
      1 C         138.8676  139.2034  165.0252 C.ar    1  UNL1        0.0878
      2 C         138.0325  138.7718  166.1942 C.ar    1  UNL1        0.0091
      3 C         138.3911  139.2225  167.5791 C.ar    1  UNL1        0.0194
      4 C         139.5847  140.1048  167.7952 C.ar    1  UNL1        0.0844
      5 N         140.4198  140.5364  166.6264 N.ar    1  UNL1       -0.2576
      6 C         141.6134  141.4188  166.8425 C.ar    1  UNL1        0.2672
      7 O         141.9720  141.8694  168.2274 O.2     1  UNL1       -0.2665
      8 C         142.4485  141.8504  165.6735 C.ar    1  UNL1        0.0742
      9 C         143.6421  142.7327  165.8896 C.ar    1  UNL1        0.0063
     10 C         144.4772  143.1644  164.7207 C.ar    1  UNL1        0.0003
     11 C         144.1186  142.7137  163.3356 C.ar    1  UNL1        0.0015
     12 C         144.9536  143.1453  162.1667 C.ar    1  UNL1        0.0000
     13 C         144.5950  142.6946  160.7817 C.ar    1  UNL1        0.0000
     14 C         143.4014  141.8123  160.5656 C.ar    1  UNL1        0.0000
     15 C         142.5663  141.3807  161.7345 C.ar    1  UNL1        0.0015
     16 C         142.9249  141.8313  163.1195 C.ar    1  UNL1        0.0179
     17 C         142.0899  141.3997  164.2885 C.ar    1  UNL1        0.0875
     18 N         140.8962  140.5174  164.0724 N.ar    1  UNL1       -0.2276
     19 C         140.0612  140.0857  165.2413 C.ar    1  UNL1        0.1543
     20 N         137.9769  139.7402  162.6443 N.am    1  UNL1       -0.2994
     21 C         138.5089  138.7527  163.6402 C.2     1  UNL1        0.2488
     22 O         138.6824  137.3144  163.2510 O.2     1  UNL1       -0.2700
     23 H         137.8631  140.6842  162.8997 H       1  UNL1        0.1498
     24 C         137.6183  139.2895  161.2593 C.3     1  UNL1        0.1065
     25 N         137.6496  140.1432  158.8057 N.3     1  UNL1       -0.3197
     26 C         138.3753  139.8206  160.0782 C.3     1  UNL1        0.0867
     27 H         138.3141  140.4900  158.1139 H       1  UNL1        0.1189
     28 H         136.9447  140.8574  158.9880 H       1  UNL1        0.1189
@<TRIPOS>BOND
     1    25    26    1
     2    26    24    1
     3    24    20    1
     4    20    21   am
     5    21    22    2
     6    21     1    1
     7     1     2   ar
     8     2     3   ar
     9     3     4   ar
    10     4     5   ar
    11     5     6   ar
    12     6     7    2
    13     6     8   ar
    14     8     9   ar
    15     9    10   ar
    16    10    11   ar
    17    11    12   ar
    18    12    13   ar
    19    13    14   ar
    20    14    15   ar
    21    15    16   ar
    22    16    17   ar
    23    17    18   ar
    24    18    19   ar
    25    19     1   ar
    26    19     5   ar
    27    17     8   ar
    28    16    11   ar
    29    25    27    1
    30    25    28    1
    31    20    23    1
