@<TRIPOS>MOLECULE
*****
 37 40 0 0 0
SMALL
GASTEIGER

@<TRIPOS>ATOM
      1 C         139.5836  142.0938  163.7055 C.2     1  UNL1        0.1397
      2 C         139.6001  142.0049  162.2083 C.2     1  UNL1        0.1355
      3 N         140.4741  140.9943  161.5266 N.pl3   1  UNL1       -0.1998
      4 C         141.3315  140.0725  162.3421 C.2     1  UNL1        0.3442
      5 N         141.3150  140.1614  163.8393 N.2     1  UNL1       -0.0580
      6 C         140.4410  141.1720  164.5210 C.3     1  UNL1        0.2692
      7 H         140.4850  140.9360  160.5439 H       1  UNL1        0.2983
      8 C         140.4244  141.2608  166.0184 C.ar    1  UNL1        0.0371
      9 C         141.2974  142.2585  166.7202 C.ar    1  UNL1        0.0030
     10 C         141.2809  142.3474  168.2174 C.ar    1  UNL1        0.0295
     11 C         140.3914  141.4385  169.0129 C.ar    1  UNL1        0.1406
     12 F         140.3749  141.5274  170.5102 F       1  UNL1       -0.2042
     13 C         139.5184  140.4409  168.3112 C.ar    1  UNL1        0.0362
     14 C         139.5349  140.3520  166.8138 C.ar    1  UNL1        0.0372
     15 BR        138.6619  139.3544  166.1120 Br      1  UNL1       -0.0491
     16 C         142.2055  139.0619  161.6604 C.ar    1  UNL1        0.1931
     17 N         141.8759  138.3185  160.3999 N.ar    1  UNL1       -0.2297
     18 C         143.0292  137.4143  160.0799 C.ar    1  UNL1        0.1067
     19 C         144.0716  137.5989  161.1426 C.ar    1  UNL1        0.0577
     20 S         143.5625  138.6171  162.1194 S.2     1  UNL1       -0.0586
     21 C         138.7096  143.1045  164.3873 C.2     1  UNL1        0.3447
     22 O         137.2558  142.8101  164.6100 O.2     1  UNL1       -0.2450
     23 O         139.2895  144.4094  164.8462 O.3     1  UNL1       -0.4455
     24 C         141.7067  144.9312  164.0493 C.3     1  UNL1        0.0513
     25 C         140.2283  145.1676  163.9554 C.3     1  UNL1        0.2089
     26 C         138.7427  142.9268  161.3927 C.3     1  UNL1        0.1407
     27 N         138.9304  143.0070  159.9067 N.3     1  UNL1       -0.2585
     28 C         138.2710  141.9996  159.0120 C.3     1  UNL1        0.1002
     29 C         138.4587  142.0799  157.5259 C.3     1  UNL1        0.1076
     30 C         138.3376  141.7416  156.0696 C.3     1  UNL1        0.0311
     31 C         137.5696  140.8748  157.6114 C.3     1  UNL1        0.0311
     32 O         139.3058  143.1675  156.9346 O.3     1  UNL1       -0.3553
     33 C         139.9651  144.1748  157.8293 C.3     1  UNL1        0.1635
     34 C         139.7775  144.0946  159.3153 C.3     1  UNL1        0.1247
     35 C         140.4368  145.1019  160.2100 C.2     1  UNL1        0.0673
     36 O         139.6403  146.2434  160.7692 O.co2   1  UNL1       -0.5477
     37 O         141.8926  144.9678  160.5455 O.co2   1  UNL1       -0.5477
@<TRIPOS>UNITY_ATOM_ATTR
36 1
charge -1
@<TRIPOS>BOND
     1    24    25    1
     2    25    23    1
     3    23    21    1
     4    21    22    2
     5    21     1    1
     6     1     2    2
     7     2    26    1
     8    26    27    1
     9    27    28    1
    10    28    29    1
    11    29    30    1
    12    29    31    1
    13    29    32    1
    14    32    33    1
    15    33    34    1
    16    34    35    1
    17    35    36   ar
    18    35    37   ar
    19     2     3    1
    20     3     4    1
    21     4    16    1
    22    16    17   ar
    23    17    18   ar
    24    18    19   ar
    25    19    20   ar
    26     4     5    2
    27     5     6    1
    28     6     8    1
    29     8     9   ar
    30     9    10   ar
    31    10    11   ar
    32    11    12    1
    33    11    13   ar
    34    13    14   ar
    35    14    15    1
    36     6     1    1
    37    14     8   ar
    38    34    27    1
    39    20    16   ar
    40     3     7    1
@<TRIPOS>MOLECULE
*****
 37 40 0 0 0
SMALL
GASTEIGER

@<TRIPOS>ATOM
      1 C         139.3051  140.9454  160.8895 C.2     1  UNL1        0.1397
      2 C         139.3503  140.1910  159.5939 C.2     1  UNL1        0.1355
      3 N         138.9791  140.8775  158.3129 N.pl3   1  UNL1       -0.1998
      4 C         138.5627  142.3184  158.3276 C.2     1  UNL1        0.3442
      5 N         138.5175  143.0728  159.6232 N.2     1  UNL1       -0.0580
      6 C         138.8887  142.3863  160.9042 C.3     1  UNL1        0.2692
      7 H         139.0088  140.3823  157.4625 H       1  UNL1        0.2983
      8 C         138.8434  143.1409  162.1999 C.ar    1  UNL1        0.0371
      9 C         137.6154  143.0826  163.0592 C.ar    1  UNL1        0.0030
     10 C         137.5701  143.8370  164.3548 C.ar    1  UNL1        0.0295
     11 C         138.7529  144.6499  164.7912 C.ar    1  UNL1        0.1406
     12 F         138.7076  145.4043  166.0868 F       1  UNL1       -0.2042
     13 C         139.9809  144.7082  163.9318 C.ar    1  UNL1        0.0362
     14 C         140.0262  143.9536  162.6362 C.ar    1  UNL1        0.0372
     15 BR        141.2543  144.0120  161.7768 Br      1  UNL1       -0.0491
     16 C         138.1915  143.0049  157.0466 C.ar    1  UNL1        0.1931
     17 N         138.9272  144.1488  156.4140 N.ar    1  UNL1       -0.2297
     18 C         138.2098  144.5189  155.1497 C.ar    1  UNL1        0.1067
     19 C         137.0307  143.6037  155.0009 C.ar    1  UNL1        0.0577
     20 S         137.0194  142.6680  156.1732 S.2     1  UNL1       -0.0586
     21 C         139.6763  140.2589  162.1705 C.2     1  UNL1        0.3447
     22 O         141.0976  140.2824  162.6495 O.2     1  UNL1       -0.2450
     23 O         138.6263  139.5490  162.9726 O.3     1  UNL1       -0.4455
     24 C         139.0786  137.6666  164.7053 C.3     1  UNL1        0.0513
     25 C         138.7870  138.0933  163.2971 C.3     1  UNL1        0.2089
     26 C         139.7668  138.7500  159.5792 C.3     1  UNL1        0.1407
     27 N         140.5287  138.2014  158.4094 N.3     1  UNL1       -0.2585
     28 C         139.7923  137.7083  157.1993 C.3     1  UNL1        0.1002
     29 C         140.5543  137.1597  156.0294 C.3     1  UNL1        0.1076
     30 C         140.8289  136.5578  154.6832 C.3     1  UNL1        0.0311
     31 C         139.1512  137.0062  155.5215 C.3     1  UNL1        0.0311
     32 O         142.0527  137.1041  156.0698 O.3     1  UNL1       -0.3553
     33 C         142.7891  137.5972  157.2800 C.3     1  UNL1        0.1635
     34 C         142.0272  138.1458  158.4498 C.3     1  UNL1        0.1247
     35 C         142.7637  138.6389  159.6599 C.2     1  UNL1        0.0673
     36 O         143.0370  140.1044  159.8261 O.co2   1  UNL1       -0.5477
     37 O         143.2268  137.6665  160.7039 O.co2   1  UNL1       -0.5477
@<TRIPOS>UNITY_ATOM_ATTR
36 1
charge -1
@<TRIPOS>BOND
     1    24    25    1
     2    25    23    1
     3    23    21    1
     4    21    22    2
     5    21     1    1
     6     1     2    2
     7     2    26    1
     8    26    27    1
     9    27    28    1
    10    28    29    1
    11    29    30    1
    12    29    31    1
    13    29    32    1
    14    32    33    1
    15    33    34    1
    16    34    35    1
    17    35    36   ar
    18    35    37   ar
    19     2     3    1
    20     3     4    1
    21     4    16    1
    22    16    17   ar
    23    17    18   ar
    24    18    19   ar
    25    19    20   ar
    26     4     5    2
    27     5     6    1
    28     6     8    1
    29     8     9   ar
    30     9    10   ar
    31    10    11   ar
    32    11    12    1
    33    11    13   ar
    34    13    14   ar
    35    14    15    1
    36     6     1    1
    37    14     8   ar
    38    34    27    1
    39    20    16   ar
    40     3     7    1
@<TRIPOS>MOLECULE
*****
 37 40 0 0 0
SMALL
GASTEIGER

@<TRIPOS>ATOM
      1 C         140.9960  140.4253  164.6128 C.2     1  UNL1        0.1397
      2 C         140.7496  140.3542  163.1349 C.2     1  UNL1        0.1355
      3 N         140.4991  141.6108  162.3550 N.pl3   1  UNL1       -0.1998
      4 C         140.4951  142.9385  163.0530 C.2     1  UNL1        0.3442
      5 N         140.7416  143.0095  164.5309 N.2     1  UNL1       -0.0580
      6 C         140.9921  141.7529  165.3108 C.3     1  UNL1        0.2692
      7 H         140.3373  141.5642  161.3850 H       1  UNL1        0.2983
      8 C         141.2386  141.8240  166.7887 C.ar    1  UNL1        0.0371
      9 C         140.1257  141.5278  167.7498 C.ar    1  UNL1        0.0030
     10 C         140.3721  141.5989  169.2277 C.ar    1  UNL1        0.0295
     11 C         141.7315  141.9662  169.7446 C.ar    1  UNL1        0.1406
     12 F         141.9780  142.0373  171.2224 F       1  UNL1       -0.2042
     13 C         142.8445  142.2625  168.7835 C.ar    1  UNL1        0.0362
     14 C         142.5980  142.1914  167.3055 C.ar    1  UNL1        0.0372
     15 BR        143.7109  142.4876  166.3445 Br      1  UNL1       -0.0491
     16 C         140.2447  144.1951  162.2732 C.ar    1  UNL1        0.1931
     17 N         139.6179  145.4510  162.8022 N.ar    1  UNL1       -0.2297
     18 C         139.5629  146.4485  161.6833 C.ar    1  UNL1        0.1067
     19 C         140.1557  145.8092  160.4627 C.ar    1  UNL1        0.0577
     20 S         140.5770  144.4165  160.8273 S.2     1  UNL1       -0.0586
     21 C         141.2465  139.1687  165.3927 C.2     1  UNL1        0.3447
     22 O         142.6455  138.7949  165.7837 O.2     1  UNL1       -0.2450
     23 O         140.0979  138.2858  165.7815 O.3     1  UNL1       -0.4455
     24 C         137.7454  138.5697  166.8471 C.3     1  UNL1        0.0513
     25 C         138.6932  138.8070  165.7088 C.3     1  UNL1        0.2089
     26 C         140.7535  139.0265  162.4368 C.3     1  UNL1        0.1407
     27 N         140.6356  138.9643  160.9428 N.3     1  UNL1       -0.2585
     28 C         141.8656  138.8040  160.0994 C.3     1  UNL1        0.1002
     29 C         141.7476  138.7418  158.6053 C.3     1  UNL1        0.1076
     30 C         142.1459  138.6323  157.1633 C.3     1  UNL1        0.0311
     31 C         143.2339  138.6056  158.7551 C.3     1  UNL1        0.0311
     32 O         140.3996  138.8400  157.9547 O.3     1  UNL1       -0.3553
     33 C         139.1696  139.0003  158.7981 C.3     1  UNL1        0.1635
     34 C         139.2876  139.0625  160.2921 C.3     1  UNL1        0.1247
     35 C         138.0575  139.2229  161.1355 C.2     1  UNL1        0.0673
     36 O         137.3496  138.0119  161.6672 O.co2   1  UNL1       -0.5477
     37 O         137.5355  140.5940  161.4473 O.co2   1  UNL1       -0.5477
@<TRIPOS>UNITY_ATOM_ATTR
36 1
charge -1
@<TRIPOS>BOND
     1    24    25    1
     2    25    23    1
     3    23    21    1
     4    21    22    2
     5    21     1    1
     6     1     2    2
     7     2    26    1
     8    26    27    1
     9    27    28    1
    10    28    29    1
    11    29    30    1
    12    29    31    1
    13    29    32    1
    14    32    33    1
    15    33    34    1
    16    34    35    1
    17    35    36   ar
    18    35    37   ar
    19     2     3    1
    20     3     4    1
    21     4    16    1
    22    16    17   ar
    23    17    18   ar
    24    18    19   ar
    25    19    20   ar
    26     4     5    2
    27     5     6    1
    28     6     8    1
    29     8     9   ar
    30     9    10   ar
    31    10    11   ar
    32    11    12    1
    33    11    13   ar
    34    13    14   ar
    35    14    15    1
    36     6     1    1
    37    14     8   ar
    38    34    27    1
    39    20    16   ar
    40     3     7    1
@<TRIPOS>MOLECULE
*****
 37 40 0 0 0
SMALL
GASTEIGER

@<TRIPOS>ATOM
      1 C         142.2246  143.2487  160.2567 C.2     1  UNL1        0.1397
      2 C         143.1308  143.2347  159.0615 C.2     1  UNL1        0.1355
      3 N         142.7627  144.0110  157.8319 N.pl3   1  UNL1       -0.1998
      4 C         141.4882  144.8013  157.7975 C.2     1  UNL1        0.3442
      5 N         140.5820  144.8154  158.9927 N.2     1  UNL1       -0.0580
      6 C         140.9502  144.0391  160.2223 C.3     1  UNL1        0.2692
      7 H         143.3575  144.0018  157.0475 H       1  UNL1        0.2983
      8 C         140.0438  144.0531  161.4175 C.ar    1  UNL1        0.0371
      9 C         140.2950  145.0184  162.5378 C.ar    1  UNL1        0.0030
     10 C         139.3887  145.0325  163.7330 C.ar    1  UNL1        0.0295
     11 C         138.2313  144.0812  163.8079 C.ar    1  UNL1        0.1406
     12 F         137.3250  144.0953  165.0030 F       1  UNL1       -0.2042
     13 C         137.9801  143.1160  162.6875 C.ar    1  UNL1        0.0362
     14 C         138.8865  143.1019  161.4923 C.ar    1  UNL1        0.0372
     15 BR        138.6353  142.1367  160.3719 Br      1  UNL1       -0.0491
     16 C         141.1201  145.5777  156.5680 C.ar    1  UNL1        0.1931
     17 N         140.0938  146.6687  156.4885 N.ar    1  UNL1       -0.2297
     18 C         140.0530  147.1646  155.0734 C.ar    1  UNL1        0.1067
     19 C         141.0541  146.3800  154.2783 C.ar    1  UNL1        0.0577
     20 S         141.7136  145.3992  155.2020 S.2     1  UNL1       -0.0586
     21 C         142.5927  142.4724  161.4862 C.2     1  UNL1        0.3447
     22 O         141.8986  141.1784  161.7920 O.2     1  UNL1       -0.2450
     23 O         143.6551  142.9902  162.4100 O.3     1  UNL1       -0.4455
     24 C         143.6500  145.0492  163.9944 C.3     1  UNL1        0.0513
     25 C         143.8106  144.4670  162.6213 C.3     1  UNL1        0.2089
     26 C         144.4053  142.4444  159.0958 C.3     1  UNL1        0.1407
     27 N         144.9122  141.7841  157.8480 N.3     1  UNL1       -0.2585
     28 C         146.0149  142.4225  157.0566 C.3     1  UNL1        0.1002
     29 C         146.5218  141.7622  155.8087 C.3     1  UNL1        0.1076
     30 C         147.3336  141.5243  154.5700 C.3     1  UNL1        0.0311
     31 C         147.3996  142.9783  155.8349 C.3     1  UNL1        0.0311
     32 O         145.9260  140.4635  155.3524 O.3     1  UNL1       -0.3553
     33 C         144.8233  139.8251  156.1438 C.3     1  UNL1        0.1635
     34 C         144.3164  140.4853  157.3916 C.3     1  UNL1        0.1247
     35 C         143.2136  139.8469  158.1831 C.2     1  UNL1        0.0673
     36 O         143.5392  138.8377  159.2440 O.co2   1  UNL1       -0.5477
     37 O         141.7854  140.2177  157.9136 O.co2   1  UNL1       -0.5477
@<TRIPOS>UNITY_ATOM_ATTR
36 1
charge -1
@<TRIPOS>BOND
     1    24    25    1
     2    25    23    1
     3    23    21    1
     4    21    22    2
     5    21     1    1
     6     1     2    2
     7     2    26    1
     8    26    27    1
     9    27    28    1
    10    28    29    1
    11    29    30    1
    12    29    31    1
    13    29    32    1
    14    32    33    1
    15    33    34    1
    16    34    35    1
    17    35    36   ar
    18    35    37   ar
    19     2     3    1
    20     3     4    1
    21     4    16    1
    22    16    17   ar
    23    17    18   ar
    24    18    19   ar
    25    19    20   ar
    26     4     5    2
    27     5     6    1
    28     6     8    1
    29     8     9   ar
    30     9    10   ar
    31    10    11   ar
    32    11    12    1
    33    11    13   ar
    34    13    14   ar
    35    14    15    1
    36     6     1    1
    37    14     8   ar
    38    34    27    1
    39    20    16   ar
    40     3     7    1
@<TRIPOS>MOLECULE
*****
 37 40 0 0 0
SMALL
GASTEIGER

@<TRIPOS>ATOM
      1 C         140.5867  141.3724  160.8115 C.2     1  UNL1        0.1397
      2 C         140.8205  140.5841  159.5570 C.2     1  UNL1        0.1355
      3 N         139.8329  140.6572  158.4303 N.pl3   1  UNL1       -0.1998
      4 C         138.6116  141.5185  158.5582 C.2     1  UNL1        0.3442
      5 N         138.3778  142.3067  159.8127 N.2     1  UNL1       -0.0580
      6 C         139.3653  142.2337  160.9394 C.3     1  UNL1        0.2692
      7 H         139.9864  140.1398  157.6069 H       1  UNL1        0.2983
      8 C         139.1315  143.0220  162.1940 C.ar    1  UNL1        0.0371
      9 C         139.8041  144.3494  162.3820 C.ar    1  UNL1        0.0030
     10 C         139.5703  145.1377  163.6366 C.ar    1  UNL1        0.0295
     11 C         138.6638  144.5986  164.7032 C.ar    1  UNL1        0.1406
     12 F         138.4300  145.3868  165.9577 F       1  UNL1       -0.2042
     13 C         137.9912  143.2711  164.5152 C.ar    1  UNL1        0.0362
     14 C         138.2250  142.4828  163.2606 C.ar    1  UNL1        0.0372
     15 BR        137.5524  141.1553  163.0726 Br      1  UNL1       -0.0491
     16 C         137.6240  141.5916  157.4315 C.ar    1  UNL1        0.1931
     17 N         136.5845  140.5616  157.1020 N.ar    1  UNL1       -0.2297
     18 C         135.8206  141.0409  155.9034 C.ar    1  UNL1        0.1067
     19 C         136.3880  142.3672  155.4920 C.ar    1  UNL1        0.0577
     20 S         137.5026  142.7075  156.4365 S.2     1  UNL1       -0.0586
     21 C         141.5742  141.2993  161.9382 C.2     1  UNL1        0.3447
     22 O         142.8528  142.0803  161.8667 O.2     1  UNL1       -0.2450
     23 O         141.2832  140.4452  163.1364 O.3     1  UNL1       -0.4455
     24 C         141.3961  141.9556  165.2474 C.3     1  UNL1        0.0513
     25 C         141.8982  140.7796  164.4631 C.3     1  UNL1        0.2089
     26 C         142.0419  139.7228  159.4290 C.3     1  UNL1        0.1407
     27 N         143.0184  139.9665  158.3169 N.3     1  UNL1       -0.2585
     28 C         143.9737  141.1202  158.3970 C.3     1  UNL1        0.1002
     29 C         144.9502  141.3639  157.2847 C.3     1  UNL1        0.1076
     30 C         146.0523  142.0005  156.4909 C.3     1  UNL1        0.0311
     31 C         145.3118  142.4950  158.2013 C.3     1  UNL1        0.0311
     32 O         144.9714  140.4540  156.0925 O.3     1  UNL1       -0.3553
     33 C         144.0161  139.3003  156.0124 C.3     1  UNL1        0.1635
     34 C         143.0396  139.0566  157.1245 C.3     1  UNL1        0.1247
     35 C         142.0843  137.9029  157.0444 C.2     1  UNL1        0.0673
     36 O         142.5738  136.5057  157.2860 O.co2   1  UNL1       -0.5477
     37 O         140.6396  138.1464  156.7227 O.co2   1  UNL1       -0.5477
@<TRIPOS>UNITY_ATOM_ATTR
36 1
charge -1
@<TRIPOS>BOND
     1    24    25    1
     2    25    23    1
     3    23    21    1
     4    21    22    2
     5    21     1    1
     6     1     2    2
     7     2    26    1
     8    26    27    1
     9    27    28    1
    10    28    29    1
    11    29    30    1
    12    29    31    1
    13    29    32    1
    14    32    33    1
    15    33    34    1
    16    34    35    1
    17    35    36   ar
    18    35    37   ar
    19     2     3    1
    20     3     4    1
    21     4    16    1
    22    16    17   ar
    23    17    18   ar
    24    18    19   ar
    25    19    20   ar
    26     4     5    2
    27     5     6    1
    28     6     8    1
    29     8     9   ar
    30     9    10   ar
    31    10    11   ar
    32    11    12    1
    33    11    13   ar
    34    13    14   ar
    35    14    15    1
    36     6     1    1
    37    14     8   ar
    38    34    27    1
    39    20    16   ar
    40     3     7    1
@<TRIPOS>MOLECULE
*****
 37 40 0 0 0
SMALL
GASTEIGER

@<TRIPOS>ATOM
      1 C         142.1478  140.4723  164.1571 C.2     1  UNL1        0.1397
      2 C         142.0434  140.5009  162.6610 C.2     1  UNL1        0.1355
      3 N         141.5467  141.7346  161.9673 N.pl3   1  UNL1       -0.1998
      4 C         141.1544  142.9397  162.7696 C.2     1  UNL1        0.3442
      5 N         141.2587  142.9111  164.2657 N.2     1  UNL1       -0.0580
      6 C         141.7554  141.6774  164.9594 C.3     1  UNL1        0.2692
      7 H         141.4783  141.7534  160.9853 H       1  UNL1        0.2983
      8 C         141.8597  141.6488  166.4555 C.ar    1  UNL1        0.0371
      9 C         143.0905  142.1760  167.1317 C.ar    1  UNL1        0.0030
     10 C         143.1949  142.1474  168.6278 C.ar    1  UNL1        0.0295
     11 C         142.0684  141.5917  169.4478 C.ar    1  UNL1        0.1406
     12 F         142.1728  141.5631  170.9438 F       1  UNL1       -0.2042
     13 C         140.8376  141.0645  168.7716 C.ar    1  UNL1        0.0362
     14 C         140.7333  141.0931  167.2754 C.ar    1  UNL1        0.0372
     15 BR        139.5025  140.5659  166.5993 Br      1  UNL1       -0.0491
     16 C         140.6577  144.1734  162.0759 C.ar    1  UNL1        0.1931
     17 N         140.9038  144.5381  160.6418 N.ar    1  UNL1       -0.2297
     18 C         140.2259  145.8491  160.3740 C.ar    1  UNL1        0.1067
     19 C         139.5609  146.2947  161.6426 C.ar    1  UNL1        0.0577
     20 S         139.8278  145.2591  162.6943 S.2     1  UNL1       -0.0586
     21 C         142.6444  139.2386  164.8508 C.2     1  UNL1        0.3447
     22 O         141.7098  138.0932  165.1049 O.2     1  UNL1       -0.2450
     23 O         144.0758  139.1502  165.2905 O.3     1  UNL1       -0.4455
     24 C         145.5192  140.9240  164.0576 C.3     1  UNL1        0.0513
     25 C         145.1775  139.4892  164.3307 C.3     1  UNL1        0.2089
     26 C         142.4358  139.2957  161.8586 C.3     1  UNL1        0.1407
     27 N         141.7525  139.0080  160.5547 N.3     1  UNL1       -0.2585
     28 C         142.5255  139.0796  159.2711 C.3     1  UNL1        0.1002
     29 C         141.8421  138.7918  157.9671 C.3     1  UNL1        0.1076
     30 C         141.6403  138.6065  156.4924 C.3     1  UNL1        0.0311
     31 C         143.2282  139.0868  157.4753 C.3     1  UNL1        0.0311
     32 O         140.3860  138.4324  157.9467 O.3     1  UNL1       -0.3553
     33 C         139.6131  138.3609  159.2302 C.3     1  UNL1        0.1635
     34 C         140.2963  138.6486  160.5342 C.3     1  UNL1        0.1247
     35 C         139.5234  138.5770  161.8177 C.2     1  UNL1        0.0673
     36 O         138.7458  139.7687  162.2924 O.co2   1  UNL1       -0.5477
     37 O         139.5281  137.3138  162.6266 O.co2   1  UNL1       -0.5477
@<TRIPOS>UNITY_ATOM_ATTR
36 1
charge -1
@<TRIPOS>BOND
     1    24    25    1
     2    25    23    1
     3    23    21    1
     4    21    22    2
     5    21     1    1
     6     1     2    2
     7     2    26    1
     8    26    27    1
     9    27    28    1
    10    28    29    1
    11    29    30    1
    12    29    31    1
    13    29    32    1
    14    32    33    1
    15    33    34    1
    16    34    35    1
    17    35    36   ar
    18    35    37   ar
    19     2     3    1
    20     3     4    1
    21     4    16    1
    22    16    17   ar
    23    17    18   ar
    24    18    19   ar
    25    19    20   ar
    26     4     5    2
    27     5     6    1
    28     6     8    1
    29     8     9   ar
    30     9    10   ar
    31    10    11   ar
    32    11    12    1
    33    11    13   ar
    34    13    14   ar
    35    14    15    1
    36     6     1    1
    37    14     8   ar
    38    34    27    1
    39    20    16   ar
    40     3     7    1
@<TRIPOS>MOLECULE
*****
 37 40 0 0 0
SMALL
GASTEIGER

@<TRIPOS>ATOM
      1 C         140.5617  139.7055  163.8305 C.2     1  UNL1        0.1397
      2 C         140.6092  139.9018  162.3442 C.2     1  UNL1        0.1355
      3 N         140.4841  141.2799  161.7652 N.pl3   1  UNL1       -0.1998
      4 C         140.3115  142.4618  162.6726 C.2     1  UNL1        0.3442
      5 N         140.2640  142.2655  164.1589 N.2     1  UNL1       -0.0580
      6 C         140.3891  140.8874  164.7379 C.3     1  UNL1        0.2692
      7 H         140.5152  141.4087  160.7897 H       1  UNL1        0.2983
      8 C         140.3416  140.6912  166.2243 C.ar    1  UNL1        0.0371
      9 C         139.1569  140.0213  166.8549 C.ar    1  UNL1        0.0030
     10 C         139.1094  139.8251  168.3412 C.ar    1  UNL1        0.0295
     11 C         140.2466  140.2988  169.1970 C.ar    1  UNL1        0.1406
     12 F         140.1991  140.1026  170.6833 F       1  UNL1       -0.2042
     13 C         141.4314  140.9686  168.5664 C.ar    1  UNL1        0.0362
     14 C         141.4789  141.1648  167.0800 C.ar    1  UNL1        0.0372
     15 BR        142.6636  141.8347  166.4494 Br      1  UNL1       -0.0491
     16 C         140.1864  143.8399  162.0936 C.ar    1  UNL1        0.1931
     17 N         140.5266  144.2402  160.6887 N.ar    1  UNL1       -0.2297
     18 C         140.2496  145.7074  160.5447 C.ar    1  UNL1        0.1067
     19 C         139.7382  146.2138  161.8607 C.ar    1  UNL1        0.0577
     20 S         139.6991  145.0596  162.8180 S.2     1  UNL1       -0.0586
     21 C         140.6868  138.3274  164.4094 C.2     1  UNL1        0.3447
     22 O         139.4578  137.5723  164.8207 O.2     1  UNL1       -0.2450
     23 O         142.0409  137.7045  164.5771 O.3     1  UNL1       -0.4455
     24 C         143.8050  138.1975  166.4197 C.3     1  UNL1        0.0513
     25 C         143.1854  138.5252  165.0935 C.3     1  UNL1        0.2089
     26 C         140.7818  138.7199  161.4367 C.3     1  UNL1        0.1407
     27 N         141.2931  138.9149  160.0401 N.3     1  UNL1       -0.2585
     28 C         140.3291  139.0102  158.8949 C.3     1  UNL1        0.1002
     29 C         140.8405  139.2053  157.4983 C.3     1  UNL1        0.1076
     30 C         140.8393  139.3877  156.0095 C.3     1  UNL1        0.0311
     31 C         139.3646  139.1689  157.2326 C.3     1  UNL1        0.0311
     32 O         142.3159  139.3051  157.2470 O.3     1  UNL1       -0.3553
     33 C         143.2799  139.2098  158.3922 C.3     1  UNL1        0.1635
     34 C         142.7686  139.0147  159.7888 C.3     1  UNL1        0.1247
     35 C         143.7326  138.9194  160.9340 C.2     1  UNL1        0.0673
     36 O         144.1868  137.5757  161.4222 O.co2   1  UNL1       -0.5477
     37 O         144.2424  140.1678  161.5910 O.co2   1  UNL1       -0.5477
@<TRIPOS>UNITY_ATOM_ATTR
36 1
charge -1
@<TRIPOS>BOND
     1    24    25    1
     2    25    23    1
     3    23    21    1
     4    21    22    2
     5    21     1    1
     6     1     2    2
     7     2    26    1
     8    26    27    1
     9    27    28    1
    10    28    29    1
    11    29    30    1
    12    29    31    1
    13    29    32    1
    14    32    33    1
    15    33    34    1
    16    34    35    1
    17    35    36   ar
    18    35    37   ar
    19     2     3    1
    20     3     4    1
    21     4    16    1
    22    16    17   ar
    23    17    18   ar
    24    18    19   ar
    25    19    20   ar
    26     4     5    2
    27     5     6    1
    28     6     8    1
    29     8     9   ar
    30     9    10   ar
    31    10    11   ar
    32    11    12    1
    33    11    13   ar
    34    13    14   ar
    35    14    15    1
    36     6     1    1
    37    14     8   ar
    38    34    27    1
    39    20    16   ar
    40     3     7    1
@<TRIPOS>MOLECULE
*****
 37 40 0 0 0
SMALL
GASTEIGER

@<TRIPOS>ATOM
      1 C         140.3105  140.0913  161.0746 C.2     1  UNL1        0.1397
      2 C         139.7440  140.3180  159.7044 C.2     1  UNL1        0.1355
      3 N         140.2455  139.5125  158.5427 N.pl3   1  UNL1       -0.1998
      4 C         141.3136  138.4802  158.7512 C.2     1  UNL1        0.3442
      5 N         141.8801  138.2534  160.1214 N.2     1  UNL1       -0.0580
      6 C         141.3786  139.0590  161.2831 C.3     1  UNL1        0.2692
      7 H         139.8737  139.6614  157.6433 H       1  UNL1        0.2983
      8 C         141.9452  138.8321  162.6534 C.ar    1  UNL1        0.0371
      9 C         141.2390  137.9241  163.6161 C.ar    1  UNL1        0.0030
     10 C         141.8055  137.6972  164.9863 C.ar    1  UNL1        0.0295
     11 C         143.0783  138.3785  165.3939 C.ar    1  UNL1        0.1406
     12 F         143.6448  138.1517  166.7641 F       1  UNL1       -0.2042
     13 C         143.7845  139.2866  164.4312 C.ar    1  UNL1        0.0362
     14 C         143.2179  139.5134  163.0609 C.ar    1  UNL1        0.0372
     15 BR        143.9240  140.4214  162.0983 Br      1  UNL1       -0.0491
     16 C         141.8151  137.6747  157.5895 C.ar    1  UNL1        0.1931
     17 N         143.2467  137.3219  157.3137 N.ar    1  UNL1       -0.2297
     18 C         143.2895  136.5097  156.0533 C.ar    1  UNL1        0.1067
     19 C         141.8843  136.3604  155.5502 C.ar    1  UNL1        0.0577
     20 S         140.9731  137.0804  156.4995 S.2     1  UNL1       -0.0586
     21 C         139.8090  140.8968  162.2363 C.2     1  UNL1        0.3447
     22 O         140.4467  142.2135  162.5670 O.2     1  UNL1       -0.2450
     23 O         138.6697  140.3856  163.0673 O.3     1  UNL1       -0.4455
     24 C         138.2838  139.4936  165.4768 C.3     1  UNL1        0.0513
     25 C         138.6629  140.6108  164.5503 C.3     1  UNL1        0.2089
     26 C         138.6759  141.3504  159.4958 C.3     1  UNL1        0.1407
     27 N         138.8776  142.4459  158.4913 N.3     1  UNL1       -0.2585
     28 C         139.6764  143.6615  158.8575 C.3     1  UNL1        0.1002
     29 C         139.8781  144.7571  157.8528 C.3     1  UNL1        0.1076
     30 C         140.3434  146.0503  157.2519 C.3     1  UNL1        0.0311
     31 C         140.6369  145.3263  159.0149 C.3     1  UNL1        0.0311
     32 O         139.2810  144.6370  156.4821 O.3     1  UNL1       -0.3553
     33 C         138.4821  143.4213  156.1159 C.3     1  UNL1        0.1635
     34 C         138.2804  142.3258  157.1204 C.3     1  UNL1        0.1247
     35 C         137.4815  141.1102  156.7543 C.2     1  UNL1        0.0673
     36 O         138.1759  139.8051  156.4998 O.co2   1  UNL1       -0.5477
     37 O         135.9884  141.1996  156.6426 O.co2   1  UNL1       -0.5477
@<TRIPOS>UNITY_ATOM_ATTR
36 1
charge -1
@<TRIPOS>BOND
     1    24    25    1
     2    25    23    1
     3    23    21    1
     4    21    22    2
     5    21     1    1
     6     1     2    2
     7     2    26    1
     8    26    27    1
     9    27    28    1
    10    28    29    1
    11    29    30    1
    12    29    31    1
    13    29    32    1
    14    32    33    1
    15    33    34    1
    16    34    35    1
    17    35    36   ar
    18    35    37   ar
    19     2     3    1
    20     3     4    1
    21     4    16    1
    22    16    17   ar
    23    17    18   ar
    24    18    19   ar
    25    19    20   ar
    26     4     5    2
    27     5     6    1
    28     6     8    1
    29     8     9   ar
    30     9    10   ar
    31    10    11   ar
    32    11    12    1
    33    11    13   ar
    34    13    14   ar
    35    14    15    1
    36     6     1    1
    37    14     8   ar
    38    34    27    1
    39    20    16   ar
    40     3     7    1
@<TRIPOS>MOLECULE
*****
 37 40 0 0 0
SMALL
GASTEIGER

@<TRIPOS>ATOM
      1 C         140.3561  141.0450  161.1037 C.2     1  UNL1        0.1397
      2 C         140.5802  140.1988  159.8856 C.2     1  UNL1        0.1355
      3 N         139.6785  140.3433  158.6957 N.pl3   1  UNL1       -0.1998
      4 C         138.5526  141.3340  158.7238 C.2     1  UNL1        0.3442
      5 N         138.3284  142.1801  159.9418 N.2     1  UNL1       -0.0580
      6 C         139.2301  142.0357  161.1318 C.3     1  UNL1        0.2692
      7 H         139.8257  139.7879  157.8962 H       1  UNL1        0.2983
      8 C         139.0059  142.8819  162.3499 C.ar    1  UNL1        0.0371
      9 C         138.0897  142.4036  163.4371 C.ar    1  UNL1        0.0030
     10 C         137.8655  143.2498  164.6551 C.ar    1  UNL1        0.0295
     11 C         138.5574  144.5743  164.7860 C.ar    1  UNL1        0.1406
     12 F         138.3331  145.4204  166.0041 F       1  UNL1       -0.2042
     13 C         139.4735  145.0525  163.6989 C.ar    1  UNL1        0.0362
     14 C         139.6978  144.2063  162.4808 C.ar    1  UNL1        0.0372
     15 BR        140.6139  144.6846  161.3936 Br      1  UNL1       -0.0491
     16 C         137.6508  141.4785  157.5338 C.ar    1  UNL1        0.1931
     17 N         136.7047  140.4375  157.0130 N.ar    1  UNL1       -0.2297
     18 C         136.0060  141.0050  155.8130 C.ar    1  UNL1        0.1067
     19 C         136.5203  142.3967  155.5923 C.ar    1  UNL1        0.0577
     20 S         137.5369  142.6893  156.6558 S.2     1  UNL1       -0.0586
     21 C         141.2578  140.9005  162.2936 C.2     1  UNL1        0.3447
     22 O         142.5323  141.6879  162.3689 O.2     1  UNL1       -0.2450
     23 O         140.8850  139.9687  163.4084 O.3     1  UNL1       -0.4455
     24 C         138.7496  138.7716  164.2785 C.3     1  UNL1        0.0513
     25 C         139.7867  138.9661  163.2123 C.3     1  UNL1        0.2089
     26 C         141.7062  139.2081  159.8575 C.3     1  UNL1        0.1407
     27 N         142.4762  138.9837  158.5900 N.3     1  UNL1       -0.2585
     28 C         142.4997  137.6238  157.9574 C.3     1  UNL1        0.1002
     29 C         143.2697  137.3994  156.6898 C.3     1  UNL1        0.1076
     30 C         143.8505  136.6957  155.4993 C.3     1  UNL1        0.0311
     31 C         142.7248  136.0195  156.9114 C.3     1  UNL1        0.0311
     32 O         144.0163  138.5349  156.0548 O.3     1  UNL1       -0.3553
     33 C         143.9928  139.8948  156.6873 C.3     1  UNL1        0.1635
     34 C         143.2228  140.1192  157.9549 C.3     1  UNL1        0.1247
     35 C         143.1994  141.4791  158.5874 C.2     1  UNL1        0.0673
     36 O         142.1312  142.4629  158.2114 O.co2   1  UNL1       -0.5477
     37 O         144.2441  141.8553  159.5959 O.co2   1  UNL1       -0.5477
@<TRIPOS>UNITY_ATOM_ATTR
36 1
charge -1
@<TRIPOS>BOND
     1    24    25    1
     2    25    23    1
     3    23    21    1
     4    21    22    2
     5    21     1    1
     6     1     2    2
     7     2    26    1
     8    26    27    1
     9    27    28    1
    10    28    29    1
    11    29    30    1
    12    29    31    1
    13    29    32    1
    14    32    33    1
    15    33    34    1
    16    34    35    1
    17    35    36   ar
    18    35    37   ar
    19     2     3    1
    20     3     4    1
    21     4    16    1
    22    16    17   ar
    23    17    18   ar
    24    18    19   ar
    25    19    20   ar
    26     4     5    2
    27     5     6    1
    28     6     8    1
    29     8     9   ar
    30     9    10   ar
    31    10    11   ar
    32    11    12    1
    33    11    13   ar
    34    13    14   ar
    35    14    15    1
    36     6     1    1
    37    14     8   ar
    38    34    27    1
    39    20    16   ar
    40     3     7    1
