@<TRIPOS>MOLECULE
*****
 36 40 0 0 0
SMALL
GASTEIGER

@<TRIPOS>ATOM
      1 C         143.6135  137.5621  156.0809 C.ar    1  UNL1        0.0829
      2 C         144.5442  138.1132  155.0417 C.ar    1  UNL1        0.0193
      3 C         145.1279  139.4847  155.2093 C.ar    1  UNL1        0.0074
      4 C         144.7809  140.3052  156.4161 C.ar    1  UNL1        0.0676
      5 C         145.3647  141.6768  156.5837 C.ar    1  UNL1        0.1376
      6 N         145.0177  142.4972  157.7905 N.ar    1  UNL1       -0.1986
      7 C         144.0870  141.9461  158.8298 C.ar    1  UNL1        0.2227
      8 N         143.5033  140.5745  158.6622 N.ar    1  UNL1       -0.1944
      9 C         143.8503  139.7541  157.4554 C.ar    1  UNL1        0.1678
     10 N         143.2665  138.3826  157.2878 N.ar    1  UNL1       -0.2264
     11 N         146.2954  142.2279  155.5444 N.pl3   1  UNL1       -0.2897
     12 C         147.7572  141.8953  155.5946 C.3     1  UNL1        0.1242
     13 C         148.6879  142.4464  154.5553 C.3     1  UNL1        0.1636
     14 O         148.1567  143.3301  153.4658 O.3     1  UNL1       -0.3502
     15 C         146.6949  143.6626  153.4156 C.3     1  UNL1        0.1618
     16 C         145.7642  143.1116  154.4549 C.3     1  UNL1        0.1038
     17 C         144.3024  143.4441  154.4046 C.3     1  UNL1        0.0241
     18 N         143.7400  142.7665  160.0367 N.pl3   1  UNL1       -0.2747
     19 C         144.6800  142.8172  161.2046 C.3     1  UNL1        0.1256
     20 C         144.3330  143.6376  162.4115 C.3     1  UNL1        0.1637
     21 O         143.0461  144.4074  162.4504 O.3     1  UNL1       -0.3502
     22 C         142.1063  144.3567  161.2824 C.3     1  UNL1        0.1619
     23 C         142.4532  143.5363  160.0756 C.3     1  UNL1        0.1052
     24 C         141.5134  143.4856  158.9077 C.3     1  UNL1        0.0242
     25 C         141.8623  133.4474  155.5783 C.ar    1  UNL1        0.1369
     26 C         141.2828  134.6065  154.8229 C.ar    1  UNL1        0.0367
     27 C         141.8665  135.9781  154.9905 C.ar    1  UNL1        0.0046
     28 C         143.0297  136.1905  155.9134 C.ar    1  UNL1        0.0177
     29 C         143.6092  135.0314  156.6688 C.ar    1  UNL1        0.0026
     30 C         143.0255  133.6598  156.5013 C.ar    1  UNL1        0.0383
     31 C         143.6050  132.5007  157.2567 C.3     1  UNL1        0.1357
     32 C         145.0542  132.5068  157.6436 C.3     1  UNL1        0.0368
     33 O         142.7352  131.3354  157.6251 O.3     1  UNL1       -0.3799
     34 H         141.8336  131.4901  157.3024 H       1  UNL1        0.2108
     35 C         141.6491  131.2435  154.2193 C.3     1  UNL1        0.2525
     36 O         141.2786  132.0758  155.4108 O.3     1  UNL1       -0.4717
@<TRIPOS>BOND
     1    35    36    1
     2    36    25    1
     3    25    26   ar
     4    26    27   ar
     5    27    28   ar
     6    28     1    1
     7     1     2   ar
     8     2     3   ar
     9     3     4   ar
    10     4     5   ar
    11     5    11    1
    12    11    12    1
    13    12    13    1
    14    13    14    1
    15    14    15    1
    16    15    16    1
    17    16    17    1
    18     5     6   ar
    19     6     7   ar
    20     7    18    1
    21    18    19    1
    22    19    20    1
    23    20    21    1
    24    21    22    1
    25    22    23    1
    26    23    24    1
    27     7     8   ar
    28     8     9   ar
    29     9    10   ar
    30    28    29   ar
    31    29    30   ar
    32    30    31    1
    33    31    32    1
    34    31    33    1
    35    30    25   ar
    36    10     1   ar
    37     9     4   ar
    38    16    11    1
    39    23    18    1
    40    33    34    1
@<TRIPOS>MOLECULE
*****
 36 40 0 0 0
SMALL
GASTEIGER

@<TRIPOS>ATOM
      1 C         143.2537  137.6016  156.5563 C.ar    1  UNL1        0.0829
      2 C         142.5880  138.3820  157.6507 C.ar    1  UNL1        0.0193
      3 C         143.0578  139.7690  157.9753 C.ar    1  UNL1        0.0074
      4 C         144.1933  140.3757  157.2054 C.ar    1  UNL1        0.0676
      5 C         144.6631  141.7628  157.5300 C.ar    1  UNL1        0.1376
      6 N         145.7986  142.3694  156.7601 N.ar    1  UNL1       -0.1986
      7 C         146.4642  141.5890  155.6656 C.ar    1  UNL1        0.2227
      8 N         145.9944  140.2019  155.3411 N.ar    1  UNL1       -0.1944
      9 C         144.8589  139.5953  156.1110 C.ar    1  UNL1        0.1678
     10 N         144.3891  138.2083  155.7864 N.ar    1  UNL1       -0.2264
     11 N         143.9975  142.5431  158.6245 N.pl3   1  UNL1       -0.2897
     12 C         144.4927  142.4281  160.0357 C.3     1  UNL1        0.1242
     13 C         143.8270  143.2085  161.1302 C.3     1  UNL1        0.1636
     14 O         142.6661  144.1040  160.8134 O.3     1  UNL1       -0.3502
     15 C         142.1708  144.2190  159.4022 C.3     1  UNL1        0.1618
     16 C         142.8365  143.4387  158.3078 C.3     1  UNL1        0.1038
     17 C         142.3412  143.5537  156.8966 C.3     1  UNL1        0.0241
     18 N         147.5997  142.1956  154.8958 N.pl3   1  UNL1       -0.2747
     19 C         148.9962  141.6839  155.0909 C.3     1  UNL1        0.1256
     20 C         150.1316  142.2905  154.3210 C.3     1  UNL1        0.1637
     21 O         149.8706  143.4089  153.3560 O.3     1  UNL1       -0.3502
     22 C         148.4741  143.9206  153.1609 C.3     1  UNL1        0.1619
     23 C         147.3387  143.3139  153.9308 C.3     1  UNL1        0.1052
     24 C         145.9422  143.8256  153.7357 C.3     1  UNL1        0.0242
     25 C         141.8443  133.4403  155.5825 C.ar    1  UNL1        0.1369
     26 C         141.2119  134.6229  154.9104 C.ar    1  UNL1        0.0367
     27 C         141.6817  136.0100  155.2350 C.ar    1  UNL1        0.0046
     28 C         142.7839  136.2145  156.2317 C.ar    1  UNL1        0.0177
     29 C         143.4163  135.0320  156.9037 C.ar    1  UNL1        0.0026
     30 C         142.9466  133.6449  156.5792 C.ar    1  UNL1        0.0383
     31 C         143.5790  132.4624  157.2512 C.3     1  UNL1        0.1357
     32 C         145.0473  132.4704  157.5575 C.3     1  UNL1        0.0368
     33 O         142.7430  131.2719  157.6171 O.3     1  UNL1       -0.3799
     34 H         141.8233  131.4287  157.3516 H       1  UNL1        0.2108
     35 C         141.9033  131.3471  154.0448 C.3     1  UNL1        0.2525
     36 O         141.3746  132.0533  155.2579 O.3     1  UNL1       -0.4717
@<TRIPOS>BOND
     1    35    36    1
     2    36    25    1
     3    25    26   ar
     4    26    27   ar
     5    27    28   ar
     6    28     1    1
     7     1     2   ar
     8     2     3   ar
     9     3     4   ar
    10     4     5   ar
    11     5    11    1
    12    11    12    1
    13    12    13    1
    14    13    14    1
    15    14    15    1
    16    15    16    1
    17    16    17    1
    18     5     6   ar
    19     6     7   ar
    20     7    18    1
    21    18    19    1
    22    19    20    1
    23    20    21    1
    24    21    22    1
    25    22    23    1
    26    23    24    1
    27     7     8   ar
    28     8     9   ar
    29     9    10   ar
    30    28    29   ar
    31    29    30   ar
    32    30    31    1
    33    31    32    1
    34    31    33    1
    35    30    25   ar
    36    10     1   ar
    37     9     4   ar
    38    16    11    1
    39    23    18    1
    40    33    34    1
@<TRIPOS>MOLECULE
*****
 36 40 0 0 0
SMALL
GASTEIGER

@<TRIPOS>ATOM
      1 C         142.2779  136.4970  156.6978 C.ar    1  UNL1        0.0829
      2 C         141.2470  137.4362  156.1455 C.ar    1  UNL1        0.0193
      3 C         140.9855  138.7471  156.8261 C.ar    1  UNL1        0.0074
      4 C         141.7549  139.1187  158.0589 C.ar    1  UNL1        0.0676
      5 C         141.4934  140.4297  158.7395 C.ar    1  UNL1        0.1376
      6 N         142.2628  140.8013  159.9724 N.ar    1  UNL1       -0.1986
      7 C         143.2937  139.8620  160.5246 C.ar    1  UNL1        0.2227
      8 N         143.5552  138.5511  159.8440 N.ar    1  UNL1       -0.1944
      9 C         142.7858  138.1795  158.6112 C.ar    1  UNL1        0.1678
     10 N         143.0473  136.8686  157.9306 N.ar    1  UNL1       -0.2264
     11 N         140.4625  141.3689  158.1873 N.pl3   1  UNL1       -0.2897
     12 C         140.8628  142.4268  157.2021 C.3     1  UNL1        0.1242
     13 C         139.8318  143.3660  156.6498 C.3     1  UNL1        0.1636
     14 O         138.4006  143.2474  157.0827 O.3     1  UNL1       -0.3502
     15 C         138.0003  142.1895  158.0679 C.3     1  UNL1        0.1618
     16 C         139.0312  141.2502  158.6202 C.3     1  UNL1        0.1038
     17 C         138.6308  140.1924  159.6054 C.3     1  UNL1        0.0241
     18 N         144.0632  140.2336  161.7575 N.pl3   1  UNL1       -0.2747
     19 C         144.1343  139.2798  162.9131 C.3     1  UNL1        0.1256
     20 C         144.9037  139.6515  164.1459 C.3     1  UNL1        0.1637
     21 O         145.6020  140.9768  164.2232 O.3     1  UNL1       -0.3502
     22 C         145.5308  141.9305  163.0676 C.3     1  UNL1        0.1619
     23 C         144.7614  141.5589  161.8347 C.3     1  UNL1        0.1052
     24 C         144.6903  142.5125  160.6791 C.3     1  UNL1        0.0242
     25 C         143.0625  132.5643  154.6561 C.ar    1  UNL1        0.1369
     26 C         142.0584  133.5197  154.0828 C.ar    1  UNL1        0.0367
     27 C         141.7968  134.8307  154.7634 C.ar    1  UNL1        0.0046
     28 C         142.5394  135.1861  156.0172 C.ar    1  UNL1        0.0177
     29 C         143.5436  134.2306  156.5905 C.ar    1  UNL1        0.0026
     30 C         143.8052  132.9197  155.9100 C.ar    1  UNL1        0.0383
     31 C         144.8093  131.9642  156.4834 C.3     1  UNL1        0.1357
     32 C         145.2458  132.1026  157.9117 C.3     1  UNL1        0.0368
     33 O         145.3771  130.8704  155.6282 O.3     1  UNL1       -0.3799
     34 H         144.9923  130.9222  154.7393 H       1  UNL1        0.2108
     35 C         143.2007  131.1446  152.4847 C.3     1  UNL1        0.2525
     36 O         143.3241  131.2534  153.9756 O.3     1  UNL1       -0.4717
@<TRIPOS>BOND
     1    35    36    1
     2    36    25    1
     3    25    26   ar
     4    26    27   ar
     5    27    28   ar
     6    28     1    1
     7     1     2   ar
     8     2     3   ar
     9     3     4   ar
    10     4     5   ar
    11     5    11    1
    12    11    12    1
    13    12    13    1
    14    13    14    1
    15    14    15    1
    16    15    16    1
    17    16    17    1
    18     5     6   ar
    19     6     7   ar
    20     7    18    1
    21    18    19    1
    22    19    20    1
    23    20    21    1
    24    21    22    1
    25    22    23    1
    26    23    24    1
    27     7     8   ar
    28     8     9   ar
    29     9    10   ar
    30    28    29   ar
    31    29    30   ar
    32    30    31    1
    33    31    32    1
    34    31    33    1
    35    30    25   ar
    36    10     1   ar
    37     9     4   ar
    38    16    11    1
    39    23    18    1
    40    33    34    1
@<TRIPOS>MOLECULE
*****
 36 40 0 0 0
SMALL
GASTEIGER

@<TRIPOS>ATOM
      1 C         140.9317  138.9318  159.0014 C.ar    1  UNL1        0.0829
      2 C         140.3186  140.2919  158.8460 C.ar    1  UNL1        0.0193
      3 C         140.2211  141.2101  160.0281 C.ar    1  UNL1        0.0074
      4 C         140.7368  140.7681  161.3656 C.ar    1  UNL1        0.0676
      5 C         140.6393  141.6864  162.5477 C.ar    1  UNL1        0.1376
      6 N         141.1549  141.2445  163.8852 N.ar    1  UNL1       -0.1986
      7 C         141.7680  139.8843  164.0405 C.ar    1  UNL1        0.2227
      8 N         141.8655  138.9661  162.8584 N.ar    1  UNL1       -0.1944
      9 C         141.3499  139.4080  161.5210 C.ar    1  UNL1        0.1678
     10 N         141.4473  138.4899  160.3389 N.ar    1  UNL1       -0.2264
     11 N         140.0262  143.0465  162.3924 N.pl3   1  UNL1       -0.2897
     12 C         140.8463  144.1820  161.8554 C.3     1  UNL1        0.1242
     13 C         140.2331  145.5421  161.7001 C.3     1  UNL1        0.1636
     14 O         138.8000  145.7668  162.0816 O.3     1  UNL1       -0.3502
     15 C         137.9800  144.6314  162.6186 C.3     1  UNL1        0.1618
     16 C         138.5930  143.2712  162.7739 C.3     1  UNL1        0.1038
     17 C         137.7730  142.1358  163.3109 C.3     1  UNL1        0.0241
     18 N         142.2837  139.4423  165.3780 N.pl3   1  UNL1       -0.2747
     19 C         143.4319  138.4804  165.4586 C.3     1  UNL1        0.1256
     20 C         143.9475  138.0385  166.7961 C.3     1  UNL1        0.1637
     21 O         143.3149  138.5585  168.0529 O.3     1  UNL1       -0.3502
     22 C         142.1668  139.5203  167.9723 C.3     1  UNL1        0.1619
     23 C         141.6512  139.9623  166.6348 C.3     1  UNL1        0.1052
     24 C         140.5030  140.9241  166.5541 C.3     1  UNL1        0.0242
     25 C         141.2241  136.1770  155.4551 C.ar    1  UNL1        0.1369
     26 C         139.9441  136.9078  155.7336 C.ar    1  UNL1        0.0367
     27 C         139.8466  137.8261  156.9157 C.ar    1  UNL1        0.0046
     28 C         141.0291  138.0135  157.8193 C.ar    1  UNL1        0.0177
     29 C         142.3092  137.2828  157.5408 C.ar    1  UNL1        0.0026
     30 C         142.4067  136.3645  156.3587 C.ar    1  UNL1        0.0383
     31 C         143.6867  135.6338  156.0802 C.3     1  UNL1        0.1357
     32 C         143.8952  134.2519  156.6252 C.3     1  UNL1        0.0368
     33 O         144.7582  136.2849  155.2568 O.3     1  UNL1       -0.3799
     34 H         144.4651  137.1689  154.9855 H       1  UNL1        0.2108
     35 C         141.7411  135.7976  152.9375 C.3     1  UNL1        0.2525
     36 O         141.3216  135.2588  154.2730 O.3     1  UNL1       -0.4717
@<TRIPOS>BOND
     1    35    36    1
     2    36    25    1
     3    25    26   ar
     4    26    27   ar
     5    27    28   ar
     6    28     1    1
     7     1     2   ar
     8     2     3   ar
     9     3     4   ar
    10     4     5   ar
    11     5    11    1
    12    11    12    1
    13    12    13    1
    14    13    14    1
    15    14    15    1
    16    15    16    1
    17    16    17    1
    18     5     6   ar
    19     6     7   ar
    20     7    18    1
    21    18    19    1
    22    19    20    1
    23    20    21    1
    24    21    22    1
    25    22    23    1
    26    23    24    1
    27     7     8   ar
    28     8     9   ar
    29     9    10   ar
    30    28    29   ar
    31    29    30   ar
    32    30    31    1
    33    31    32    1
    34    31    33    1
    35    30    25   ar
    36    10     1   ar
    37     9     4   ar
    38    16    11    1
    39    23    18    1
    40    33    34    1
@<TRIPOS>MOLECULE
*****
 36 40 0 0 0
SMALL
GASTEIGER

@<TRIPOS>ATOM
      1 C         139.9423  139.0084  161.0447 C.ar    1  UNL1        0.0829
      2 C         141.3112  138.5840  160.6021 C.ar    1  UNL1        0.0193
      3 C         141.6651  138.5951  159.1445 C.ar    1  UNL1        0.0074
      4 C         140.6502  139.0306  158.1295 C.ar    1  UNL1        0.0676
      5 C         141.0042  139.0416  156.6719 C.ar    1  UNL1        0.1376
      6 N         139.9892  139.4772  155.6569 N.ar    1  UNL1       -0.1986
      7 C         138.6203  139.9016  156.0995 C.ar    1  UNL1        0.2227
      8 N         138.2663  139.8905  157.5571 N.ar    1  UNL1       -0.1944
      9 C         139.2813  139.4550  158.5721 C.ar    1  UNL1        0.1678
     10 N         138.9273  139.4439  160.0297 N.ar    1  UNL1       -0.2264
     11 N         142.3731  138.6172  156.2293 N.pl3   1  UNL1       -0.2897
     12 C         143.4469  139.6442  156.0237 C.3     1  UNL1        0.1242
     13 C         144.8158  139.2197  155.5811 C.3     1  UNL1        0.1636
     14 O         145.1109  137.7683  155.3441 O.3     1  UNL1       -0.3502
     15 C         144.0372  136.7413  155.5497 C.3     1  UNL1        0.1618
     16 C         142.6683  137.1657  155.9923 C.3     1  UNL1        0.1038
     17 C         141.5945  136.1387  156.1979 C.3     1  UNL1        0.0241
     18 N         137.6053  140.3371  155.0846 N.pl3   1  UNL1       -0.2747
     19 C         136.8181  139.3119  154.3235 C.3     1  UNL1        0.1256
     20 C         135.8031  139.7474  153.3085 C.3     1  UNL1        0.1637
     21 O         135.5754  141.2081  153.0546 O.3     1  UNL1       -0.3502
     22 C         136.3627  142.2333  153.8156 C.3     1  UNL1        0.1619
     23 C         137.3776  141.7978  154.8306 C.3     1  UNL1        0.1052
     24 C         138.1648  142.8229  155.5917 C.3     1  UNL1        0.0242
     25 C         138.8802  138.9753  165.4175 C.ar    1  UNL1        0.1369
     26 C         138.8332  137.7028  164.6246 C.ar    1  UNL1        0.0367
     27 C         139.1872  137.7139  163.1670 C.ar    1  UNL1        0.0046
     28 C         139.5882  138.9973  162.5023 C.ar    1  UNL1        0.0177
     29 C         139.6353  140.2698  163.2952 C.ar    1  UNL1        0.0026
     30 C         139.2813  140.2588  164.7527 C.ar    1  UNL1        0.0383
     31 C         139.3284  141.5312  165.5456 C.3     1  UNL1        0.1357
     32 C         138.8677  142.8178  164.9272 C.3     1  UNL1        0.0368
     33 O         139.8362  141.5171  166.9570 O.3     1  UNL1       -0.3799
     34 H         140.0912  140.6133  167.1999 H       1  UNL1        0.2108
     35 C         137.3524  138.1636  167.3557 C.3     1  UNL1        0.2525
     36 O         138.5262  138.9642  166.8750 O.3     1  UNL1       -0.4717
@<TRIPOS>BOND
     1    35    36    1
     2    36    25    1
     3    25    26   ar
     4    26    27   ar
     5    27    28   ar
     6    28     1    1
     7     1     2   ar
     8     2     3   ar
     9     3     4   ar
    10     4     5   ar
    11     5    11    1
    12    11    12    1
    13    12    13    1
    14    13    14    1
    15    14    15    1
    16    15    16    1
    17    16    17    1
    18     5     6   ar
    19     6     7   ar
    20     7    18    1
    21    18    19    1
    22    19    20    1
    23    20    21    1
    24    21    22    1
    25    22    23    1
    26    23    24    1
    27     7     8   ar
    28     8     9   ar
    29     9    10   ar
    30    28    29   ar
    31    29    30   ar
    32    30    31    1
    33    31    32    1
    34    31    33    1
    35    30    25   ar
    36    10     1   ar
    37     9     4   ar
    38    16    11    1
    39    23    18    1
    40    33    34    1
@<TRIPOS>MOLECULE
*****
 36 40 0 0 0
SMALL
GASTEIGER

@<TRIPOS>ATOM
      1 C         140.0643  146.3252  155.7366 C.ar    1  UNL1        0.0829
      2 C         140.2188  144.9749  155.1020 C.ar    1  UNL1        0.0193
      3 C         140.2868  143.7464  155.9599 C.ar    1  UNL1        0.0074
      4 C         140.2003  143.8682  157.4524 C.ar    1  UNL1        0.0676
      5 C         140.2683  142.6396  158.3103 C.ar    1  UNL1        0.1376
      6 N         140.1819  142.7614  159.8029 N.ar    1  UNL1       -0.1986
      7 C         140.0275  144.1117  160.4375 C.ar    1  UNL1        0.2227
      8 N         139.9595  145.3403  159.5796 N.ar    1  UNL1       -0.1944
      9 C         140.0459  145.2185  158.0871 C.ar    1  UNL1        0.1678
     10 N         139.9779  146.4470  157.2291 N.ar    1  UNL1       -0.2264
     11 N         140.4228  141.2893  157.6757 N.pl3   1  UNL1       -0.2897
     12 C         141.7919  140.7446  157.3950 C.3     1  UNL1        0.1242
     13 C         141.9463  139.3943  156.7604 C.3     1  UNL1        0.1636
     14 O         140.7316  138.5886  156.4064 O.3     1  UNL1       -0.3502
     15 C         139.3624  139.1333  156.6871 C.3     1  UNL1        0.1618
     16 C         139.2080  140.4836  157.3217 C.3     1  UNL1        0.1038
     17 C         137.8388  141.0282  157.6024 C.3     1  UNL1        0.0241
     18 N         139.9411  144.2335  161.9301 N.pl3   1  UNL1       -0.2747
     19 C         138.6015  144.2491  162.6050 C.3     1  UNL1        0.1256
     20 C         138.5151  144.3709  164.0975 C.3     1  UNL1        0.1637
     21 O         139.7682  144.4771  164.9152 O.3     1  UNL1       -0.3502
     22 C         141.1077  144.4615  164.2403 C.3     1  UNL1        0.1619
     23 C         141.1941  144.3397  162.7477 C.3     1  UNL1        0.1052
     24 C         142.5335  144.3241  162.0728 C.3     1  UNL1        0.0242
     25 C         139.8603  150.0110  153.1629 C.ar    1  UNL1        0.1369
     26 C         140.4505  148.7455  152.6151 C.ar    1  UNL1        0.0367
     27 C         140.5185  147.5169  153.4730 C.ar    1  UNL1        0.0046
     28 C         139.9963  147.5539  154.8787 C.ar    1  UNL1        0.0177
     29 C         139.4062  148.8194  155.4265 C.ar    1  UNL1        0.0026
     30 C         139.3381  150.0480  154.5687 C.ar    1  UNL1        0.0383
     31 C         138.7480  151.3135  155.1165 C.3     1  UNL1        0.1357
     32 C         138.8466  151.6137  156.5828 C.3     1  UNL1        0.0368
     33 O         138.0591  152.2788  154.1979 O.3     1  UNL1       -0.3799
     34 H         138.0836  151.9357  153.2910 H       1  UNL1        0.2108
     35 C         141.0218  152.0703  152.0860 C.3     1  UNL1        0.2525
     36 O         139.7923  151.2396  152.3051 O.3     1  UNL1       -0.4717
@<TRIPOS>BOND
     1    35    36    1
     2    36    25    1
     3    25    26   ar
     4    26    27   ar
     5    27    28   ar
     6    28     1    1
     7     1     2   ar
     8     2     3   ar
     9     3     4   ar
    10     4     5   ar
    11     5    11    1
    12    11    12    1
    13    12    13    1
    14    13    14    1
    15    14    15    1
    16    15    16    1
    17    16    17    1
    18     5     6   ar
    19     6     7   ar
    20     7    18    1
    21    18    19    1
    22    19    20    1
    23    20    21    1
    24    21    22    1
    25    22    23    1
    26    23    24    1
    27     7     8   ar
    28     8     9   ar
    29     9    10   ar
    30    28    29   ar
    31    29    30   ar
    32    30    31    1
    33    31    32    1
    34    31    33    1
    35    30    25   ar
    36    10     1   ar
    37     9     4   ar
    38    16    11    1
    39    23    18    1
    40    33    34    1
@<TRIPOS>MOLECULE
*****
 36 40 0 0 0
SMALL
GASTEIGER

@<TRIPOS>ATOM
      1 C         140.1543  145.0149  156.7041 C.ar    1  UNL1        0.0829
      2 C         140.3557  143.6890  156.0322 C.ar    1  UNL1        0.0193
      3 C         140.5201  142.4473  156.8576 C.ar    1  UNL1        0.0074
      4 C         140.4830  142.5316  158.3548 C.ar    1  UNL1        0.0676
      5 C         140.6474  141.2898  159.1801 C.ar    1  UNL1        0.1376
      6 N         140.6103  141.3740  160.6773 N.ar    1  UNL1       -0.1986
      7 C         140.4089  142.7000  161.3491 C.ar    1  UNL1        0.2227
      8 N         140.2445  143.9417  160.5238 N.ar    1  UNL1       -0.1944
      9 C         140.2816  143.8574  159.0266 C.ar    1  UNL1        0.1678
     10 N         140.1172  145.0991  158.2013 N.ar    1  UNL1       -0.2264
     11 N         140.8488  139.9639  158.5083 N.pl3   1  UNL1       -0.2897
     12 C         139.6623  139.1492  158.0859 C.3     1  UNL1        0.1242
     13 C         139.8638  137.8233  157.4140 C.3     1  UNL1        0.1636
     14 O         141.2517  137.3121  157.1645 O.3     1  UNL1       -0.3502
     15 C         142.4382  138.1268  157.5869 C.3     1  UNL1        0.1618
     16 C         142.2368  139.4527  158.2588 C.3     1  UNL1        0.1038
     17 C         143.4233  140.2674  158.6812 C.3     1  UNL1        0.0241
     18 N         140.3718  142.7842  162.8463 N.pl3   1  UNL1       -0.2747
     19 C         141.6520  142.8264  163.6270 C.3     1  UNL1        0.1256
     20 C         141.6149  142.9106  165.1242 C.3     1  UNL1        0.1637
     21 O         140.2977  142.9527  165.8406 O.3     1  UNL1       -0.3502
     22 C         139.0176  142.9106  165.0599 C.3     1  UNL1        0.1619
     23 C         139.0547  142.8263  163.5627 C.3     1  UNL1        0.1052
     24 C         137.7746  142.7842  162.7820 C.3     1  UNL1        0.0242
     25 C         139.6612  148.7401  154.2281 C.ar    1  UNL1        0.1369
     26 C         140.3623  147.5450  153.6535 C.ar    1  UNL1        0.0367
     27 C         140.5267  146.3032  154.4789 C.ar    1  UNL1        0.0046
     28 C         139.9899  146.2566  155.8787 C.ar    1  UNL1        0.0177
     29 C         139.2888  147.4517  156.4533 C.ar    1  UNL1        0.0026
     30 C         139.1244  148.6934  155.6281 C.ar    1  UNL1        0.0383
     31 C         138.4233  149.8885  156.2027 C.3     1  UNL1        0.1357
     32 C         138.0932  149.9330  157.6652 C.3     1  UNL1        0.0368
     33 O         138.0522  151.0391  155.3147 O.3     1  UNL1       -0.3799
     34 H         138.3352  150.8508  154.4062 H       1  UNL1        0.2108
     35 C         139.9317  149.9913  151.9674 C.3     1  UNL1        0.2525
     36 O         139.4968  149.9818  153.4029 O.3     1  UNL1       -0.4717
@<TRIPOS>BOND
     1    35    36    1
     2    36    25    1
     3    25    26   ar
     4    26    27   ar
     5    27    28   ar
     6    28     1    1
     7     1     2   ar
     8     2     3   ar
     9     3     4   ar
    10     4     5   ar
    11     5    11    1
    12    11    12    1
    13    12    13    1
    14    13    14    1
    15    14    15    1
    16    15    16    1
    17    16    17    1
    18     5     6   ar
    19     6     7   ar
    20     7    18    1
    21    18    19    1
    22    19    20    1
    23    20    21    1
    24    21    22    1
    25    22    23    1
    26    23    24    1
    27     7     8   ar
    28     8     9   ar
    29     9    10   ar
    30    28    29   ar
    31    29    30   ar
    32    30    31    1
    33    31    32    1
    34    31    33    1
    35    30    25   ar
    36    10     1   ar
    37     9     4   ar
    38    16    11    1
    39    23    18    1
    40    33    34    1
@<TRIPOS>MOLECULE
*****
 36 40 0 0 0
SMALL
GASTEIGER

@<TRIPOS>ATOM
      1 C         142.5800  137.2355  157.5627 C.ar    1  UNL1        0.0829
      2 C         142.3477  138.5266  156.8354 C.ar    1  UNL1        0.0193
      3 C         142.1031  139.7889  157.6077 C.ar    1  UNL1        0.0074
      4 C         142.0908  139.7602  159.1074 C.ar    1  UNL1        0.0676
      5 C         141.8462  141.0226  159.8798 C.ar    1  UNL1        0.1376
      6 N         141.8339  140.9939  161.3795 N.ar    1  UNL1       -0.1986
      7 C         142.0663  139.7027  162.1068 C.ar    1  UNL1        0.2227
      8 N         142.3109  138.4403  161.3344 N.ar    1  UNL1       -0.1944
      9 C         142.3232  138.4691  159.8347 C.ar    1  UNL1        0.1678
     10 N         142.5678  137.2067  159.0624 N.ar    1  UNL1       -0.2264
     11 N         141.6139  142.3137  159.1525 N.pl3   1  UNL1       -0.2897
     12 C         142.7805  143.1542  158.7251 C.3     1  UNL1        0.1242
     13 C         142.5481  144.4454  157.9977 C.3     1  UNL1        0.1636
     14 O         141.1492  144.8960  157.6978 O.3     1  UNL1       -0.3502
     15 C         139.9826  144.0555  158.1252 C.3     1  UNL1        0.1618
     16 C         140.2149  142.7644  158.8525 C.3     1  UNL1        0.1038
     17 C         139.0484  141.9238  159.2798 C.3     1  UNL1        0.0241
     18 N         142.0540  139.6739  163.6064 N.pl3   1  UNL1       -0.2747
     19 C         140.7527  139.5598  164.3438 C.3     1  UNL1        0.1256
     20 C         140.7404  139.5311  165.8434 C.3     1  UNL1        0.1637
     21 O         142.0294  139.6164  166.6058 O.3     1  UNL1       -0.3502
     22 C         143.3307  139.7305  165.8685 C.3     1  UNL1        0.1619
     23 C         143.3430  139.7592  164.3688 C.3     1  UNL1        0.1052
     24 C         144.6442  139.8733  163.6315 C.3     1  UNL1        0.0242
     25 C         143.3139  133.4482  155.2457 C.ar    1  UNL1        0.1369
     26 C         142.8073  134.6719  154.5416 C.ar    1  UNL1        0.0367
     27 C         142.5627  135.9344  155.3139 C.ar    1  UNL1        0.0046
     28 C         142.8247  135.9730  156.7903 C.ar    1  UNL1        0.0177
     29 C         143.3313  134.7493  157.4945 C.ar    1  UNL1        0.0026
     30 C         143.5759  133.4869  156.7222 C.ar    1  UNL1        0.0383
     31 C         144.0825  132.2631  157.4263 C.3     1  UNL1        0.1357
     32 C         145.4517  132.2631  158.0390 C.3     1  UNL1        0.0368
     33 O         143.2199  131.0393  157.5177 O.3     1  UNL1       -0.3799
     34 H         142.3737  131.2063  157.0739 H       1  UNL1        0.2108
     35 C         142.6552  131.8164  153.3344 C.3     1  UNL1        0.2525
     36 O         143.5585  132.1858  154.4734 O.3     1  UNL1       -0.4717
@<TRIPOS>BOND
     1    35    36    1
     2    36    25    1
     3    25    26   ar
     4    26    27   ar
     5    27    28   ar
     6    28     1    1
     7     1     2   ar
     8     2     3   ar
     9     3     4   ar
    10     4     5   ar
    11     5    11    1
    12    11    12    1
    13    12    13    1
    14    13    14    1
    15    14    15    1
    16    15    16    1
    17    16    17    1
    18     5     6   ar
    19     6     7   ar
    20     7    18    1
    21    18    19    1
    22    19    20    1
    23    20    21    1
    24    21    22    1
    25    22    23    1
    26    23    24    1
    27     7     8   ar
    28     8     9   ar
    29     9    10   ar
    30    28    29   ar
    31    29    30   ar
    32    30    31    1
    33    31    32    1
    34    31    33    1
    35    30    25   ar
    36    10     1   ar
    37     9     4   ar
    38    16    11    1
    39    23    18    1
    40    33    34    1
@<TRIPOS>MOLECULE
*****
 36 40 0 0 0
SMALL
GASTEIGER

@<TRIPOS>ATOM
      1 C         138.7261  141.4700  160.9358 C.ar    1  UNL1        0.0829
      2 C         138.0712  140.3194  160.2308 C.ar    1  UNL1        0.0193
      3 C         137.8482  140.3768  158.7486 C.ar    1  UNL1        0.0074
      4 C         138.2802  141.5849  157.9714 C.ar    1  UNL1        0.0676
      5 C         138.0572  141.6423  156.4891 C.ar    1  UNL1        0.1376
      6 N         138.4891  142.8504  155.7120 N.ar    1  UNL1       -0.1986
      7 C         139.1440  144.0011  156.4171 C.ar    1  UNL1        0.2227
      8 N         139.3670  143.9436  157.8993 N.ar    1  UNL1       -0.1944
      9 C         138.9351  142.7355  158.6764 C.ar    1  UNL1        0.1678
     10 N         139.1580  142.6781  160.1586 N.ar    1  UNL1       -0.2264
     11 N         137.4023  140.4917  155.7841 N.pl3   1  UNL1       -0.2897
     12 C         135.9133  140.4719  155.6039 C.3     1  UNL1        0.1242
     13 C         135.2584  139.3212  154.8988 C.3     1  UNL1        0.1636
     14 O         136.0925  138.1903  154.3740 O.3     1  UNL1       -0.3502
     15 C         137.5815  138.2102  154.5542 C.3     1  UNL1        0.1618
     16 C         138.2364  139.3608  155.2593 C.3     1  UNL1        0.1038
     17 C         139.7254  139.3806  155.4395 C.3     1  UNL1        0.0241
     18 N         139.5760  145.2091  155.6399 N.pl3   1  UNL1       -0.2747
     19 C         138.7616  146.4676  155.6960 C.3     1  UNL1        0.1256
     20 C         139.1936  147.6757  154.9188 C.3     1  UNL1        0.1637
     21 O         140.4399  147.6253  154.0856 O.3     1  UNL1       -0.3502
     22 C         141.2542  146.3668  154.0296 C.3     1  UNL1        0.1619
     23 C         140.8222  145.1588  154.8067 C.3     1  UNL1        0.1052
     24 C         141.6366  143.9003  154.7507 C.3     1  UNL1        0.0242
     25 C         139.3950  141.2978  165.3825 C.ar    1  UNL1        0.1369
     26 C         139.7532  142.5374  164.6177 C.ar    1  UNL1        0.0367
     27 C         139.5302  142.5948  163.1354 C.ar    1  UNL1        0.0046
     28 C         138.9491  141.4126  162.4181 C.ar    1  UNL1        0.0177
     29 C         138.5909  140.1730  163.1829 C.ar    1  UNL1        0.0026
     30 C         138.8139  140.1155  164.6651 C.ar    1  UNL1        0.0383
     31 C         138.4557  138.8759  165.4300 C.3     1  UNL1        0.1357
     32 C         139.0104  137.5477  165.0079 C.3     1  UNL1        0.0368
     33 O         137.5428  138.9644  166.6169 O.3     1  UNL1       -0.3799
     34 H         137.2768  139.8874  166.7521 H       1  UNL1        0.2108
     35 C         140.9725  140.8913  167.4064 C.3     1  UNL1        0.2525
     36 O         139.6180  141.2403  166.8647 O.3     1  UNL1       -0.4717
@<TRIPOS>BOND
     1    35    36    1
     2    36    25    1
     3    25    26   ar
     4    26    27   ar
     5    27    28   ar
     6    28     1    1
     7     1     2   ar
     8     2     3   ar
     9     3     4   ar
    10     4     5   ar
    11     5    11    1
    12    11    12    1
    13    12    13    1
    14    13    14    1
    15    14    15    1
    16    15    16    1
    17    16    17    1
    18     5     6   ar
    19     6     7   ar
    20     7    18    1
    21    18    19    1
    22    19    20    1
    23    20    21    1
    24    21    22    1
    25    22    23    1
    26    23    24    1
    27     7     8   ar
    28     8     9   ar
    29     9    10   ar
    30    28    29   ar
    31    29    30   ar
    32    30    31    1
    33    31    32    1
    34    31    33    1
    35    30    25   ar
    36    10     1   ar
    37     9     4   ar
    38    16    11    1
    39    23    18    1
    40    33    34    1
