@<TRIPOS>MOLECULE
*****
 44 48 0 0 0
SMALL
GASTEIGER

@<TRIPOS>ATOM
      1 N         143.7415  140.4551  161.9019 N.ar    1  UNL1       -0.2926
      2 C         143.4153  140.4015  160.4389 C.ar    1  UNL1        0.2611
      3 O         144.1108  141.3229  159.4811 O.2     1  UNL1       -0.2670
      4 C         142.3934  139.4266  159.9335 C.ar    1  UNL1        0.0623
      5 C         141.6979  138.5052  160.8913 C.ar    1  UNL1        0.0255
      6 C         142.0241  138.5588  162.3544 C.ar    1  UNL1        0.0975
      7 N         141.3286  137.6375  163.3122 N.ar    1  UNL1       -0.2392
      8 C         141.6548  137.6911  164.7752 C.ar    1  UNL1        0.1363
      9 C         142.6767  138.6660  165.2806 C.ar    1  UNL1        0.1658
     10 C         143.3722  139.5873  164.3228 C.ar    1  UNL1        0.0579
     11 C         143.0460  139.5337  162.8598 C.ar    1  UNL1        0.0832
     12 C         144.7634  141.4300  162.4073 C.3     1  UNL1        0.1264
     13 C         144.4893  142.9035  162.3449 C.3     1  UNL1        0.0970
     14 C         140.6567  144.5526  164.0304 C.3     1  UNL1        0.0570
     15 C         141.4925  143.6129  164.8481 C.3     1  UNL1        0.0331
     16 C         142.7701  143.0632  164.2862 C.3     1  UNL1        0.0735
     17 N         143.2118  143.4532  162.9067 N.3     1  UNL1       -0.2710
     18 C         142.3760  144.3929  162.0892 C.3     1  UNL1        0.0735
     19 C         141.0984  144.9425  162.6511 C.3     1  UNL1        0.0331
     20 N         139.3791  145.1023  164.5923 N.3     1  UNL1       -0.2947
     21 H         139.4783  145.0987  165.6075 H       1  UNL1        0.1235
     22 C         138.0737  144.4316  164.2824 C.3     1  UNL1        0.0972
     23 C         138.0113  138.8034  162.2041 C.3     1  UNL1        0.0528
     24 C         138.0269  140.2105  162.7237 C.ar    1  UNL1        0.0689
     25 N         137.9317  141.3636  161.7691 N.ar    1  UNL1       -0.2477
     26 C         137.9473  142.7706  162.2887 C.ar    1  UNL1        0.0955
     27 C         138.0581  143.0246  163.7628 C.ar    1  UNL1        0.0135
     28 C         138.1533  141.8715  164.7174 C.ar    1  UNL1        0.0101
     29 C         138.1377  140.4644  164.1978 C.ar    1  UNL1        0.0817
     30 C         138.2329  139.3113  165.1525 C.1     1  UNL1        0.1016
     31 N         138.3282  138.1582  166.1071 N.1     1  UNL1       -0.1908
     32 O         143.0029  138.7195  166.7437 O.3     1  UNL1       -0.4519
     33 C         142.2432  139.6440  167.6482 C.ar    1  UNL1        0.1455
     34 C         141.1501  140.5072  167.0915 C.ar    1  UNL1        0.0389
     35 C         140.3903  141.4317  167.9961 C.ar    1  UNL1        0.0230
     36 C         140.7236  141.4928  169.4573 C.ar    1  UNL1        0.1219
     37 C         141.8167  140.6296  170.0140 C.ar    1  UNL1        0.0230
     38 C         142.5765  139.7052  169.1095 C.ar    1  UNL1        0.0389
     39 S         139.9638  142.4172  170.3618 S.O2    1  UNL1        0.0572
     40 N         139.2040  143.3417  171.2663 N.3     1  UNL1       -0.2035
     41 O         138.8461  141.4201  170.4420 O.2     1  UNL1       -0.1532
     42 O         141.0815  143.4144  170.2815 O.2     1  UNL1       -0.1532
     43 H         138.3152  142.9120  171.5228 H       1  UNL1        0.1442
     44 H         139.0288  144.2226  170.7827 H       1  UNL1        0.1442
@<TRIPOS>BOND
     1    23    24    1
     2    24    25   ar
     3    25    26   ar
     4    26    27   ar
     5    27    22    1
     6    22    20    1
     7    20    14    1
     8    14    15    1
     9    15    16    1
    10    16    17    1
    11    17    13    1
    12    13    12    1
    13    12     1    1
    14     1     2   ar
    15     2     3    2
    16     2     4   ar
    17     4     5   ar
    18     5     6   ar
    19     6     7   ar
    20     7     8   ar
    21     8     9   ar
    22     9    32    1
    23    32    33    1
    24    33    34   ar
    25    34    35   ar
    26    35    36   ar
    27    36    39    1
    28    39    40    1
    29    39    41    2
    30    39    42    2
    31    36    37   ar
    32    37    38   ar
    33     9    10   ar
    34    10    11   ar
    35    17    18    1
    36    18    19    1
    37    27    28   ar
    38    28    29   ar
    39    29    30    1
    40    30    31    3
    41    29    24   ar
    42    19    14    1
    43    11     1   ar
    44    11     6   ar
    45    38    33   ar
    46    20    21    1
    47    40    43    1
    48    40    44    1
@<TRIPOS>MOLECULE
*****
 44 48 0 0 0
SMALL
GASTEIGER

@<TRIPOS>ATOM
      1 N         138.0206  141.7089  163.1311 N.ar    1  UNL1       -0.2926
      2 C         137.9303  141.7151  161.6338 C.ar    1  UNL1        0.2611
      3 O         137.7172  143.0064  160.9007 O.2     1  UNL1       -0.2670
      4 C         138.0531  140.4303  160.8697 C.ar    1  UNL1        0.0623
      5 C         138.2662  139.1391  161.6027 C.ar    1  UNL1        0.0255
      6 C         138.3565  139.1327  163.1000 C.ar    1  UNL1        0.0975
      7 N         138.5695  137.8416  163.8331 N.ar    1  UNL1       -0.2392
      8 C         138.6598  137.8353  165.3303 C.ar    1  UNL1        0.1363
      9 C         138.5370  139.1202  166.0945 C.ar    1  UNL1        0.1658
     10 C         138.3239  140.4113  165.3614 C.ar    1  UNL1        0.0579
     11 C         138.2337  140.4176  163.8642 C.ar    1  UNL1        0.0832
     12 C         137.8978  142.9937  163.8953 C.3     1  UNL1        0.1264
     13 C         138.7456  144.1731  163.5206 C.3     1  UNL1        0.0970
     14 C         143.1753  143.6589  162.9178 C.3     1  UNL1        0.0570
     15 C         142.2904  143.9713  161.7475 C.3     1  UNL1        0.0331
     16 C         140.8138  144.1427  161.9485 C.3     1  UNL1        0.0735
     17 N         140.2222  144.0017  163.3197 N.3     1  UNL1       -0.2710
     18 C         141.1071  143.6894  164.4899 C.3     1  UNL1        0.0735
     19 C         142.5836  143.5180  164.2889 C.3     1  UNL1        0.0331
     20 N         144.6519  143.4875  162.7168 N.3     1  UNL1       -0.2947
     21 H         144.8924  143.9870  161.8607 H       1  UNL1        0.1235
     22 C         145.2375  142.1120  162.5948 C.3     1  UNL1        0.0972
     23 C         141.9203  137.3060  163.9729 C.3     1  UNL1        0.0528
     24 C         142.7496  138.5075  163.6284 C.ar    1  UNL1        0.0689
     25 N         142.6360  139.1327  162.2696 N.ar    1  UNL1       -0.2477
     26 C         143.4653  140.3342  161.9251 C.ar    1  UNL1        0.0955
     27 C         144.4082  140.9105  162.9393 C.ar    1  UNL1        0.0135
     28 C         144.5218  140.2853  164.2981 C.ar    1  UNL1        0.0101
     29 C         143.6926  139.0838  164.6426 C.ar    1  UNL1        0.0817
     30 C         143.8063  138.4587  166.0014 C.1     1  UNL1        0.1016
     31 N         143.9199  137.8335  167.3601 N.1     1  UNL1       -0.1908
     32 O         138.6273  139.1138  167.5918 O.3     1  UNL1       -0.4519
     33 C         139.6108  140.0073  168.2877 C.ar    1  UNL1        0.1455
     34 C         139.2560  140.6311  169.6049 C.ar    1  UNL1        0.0389
     35 C         140.2397  141.5247  170.3007 C.ar    1  UNL1        0.0230
     36 C         141.5779  141.7945  169.6793 C.ar    1  UNL1        0.1219
     37 C         141.9327  141.1707  168.3621 C.ar    1  UNL1        0.0230
     38 C         140.9492  140.2772  167.6663 C.ar    1  UNL1        0.0389
     39 S         142.5615  142.6880  170.3752 S.O2    1  UNL1        0.0572
     40 N         143.5450  143.5816  171.0711 N.3     1  UNL1       -0.2035
     41 O         143.3543  142.8029  169.1071 O.2     1  UNL1       -0.1532
     42 O         141.7686  142.5731  171.6433 O.2     1  UNL1       -0.1532
     43 H         144.2763  143.8578  170.4158 H       1  UNL1        0.1442
     44 H         143.9628  143.0814  171.8558 H       1  UNL1        0.1442
@<TRIPOS>BOND
     1    23    24    1
     2    24    25   ar
     3    25    26   ar
     4    26    27   ar
     5    27    22    1
     6    22    20    1
     7    20    14    1
     8    14    15    1
     9    15    16    1
    10    16    17    1
    11    17    13    1
    12    13    12    1
    13    12     1    1
    14     1     2   ar
    15     2     3    2
    16     2     4   ar
    17     4     5   ar
    18     5     6   ar
    19     6     7   ar
    20     7     8   ar
    21     8     9   ar
    22     9    32    1
    23    32    33    1
    24    33    34   ar
    25    34    35   ar
    26    35    36   ar
    27    36    39    1
    28    39    40    1
    29    39    41    2
    30    39    42    2
    31    36    37   ar
    32    37    38   ar
    33     9    10   ar
    34    10    11   ar
    35    17    18    1
    36    18    19    1
    37    27    28   ar
    38    28    29   ar
    39    29    30    1
    40    30    31    3
    41    29    24   ar
    42    19    14    1
    43    11     1   ar
    44    11     6   ar
    45    38    33   ar
    46    20    21    1
    47    40    43    1
    48    40    44    1
@<TRIPOS>MOLECULE
*****
 44 48 0 0 0
SMALL
GASTEIGER

@<TRIPOS>ATOM
      1 N         138.0190  141.5987  163.0147 N.ar    1  UNL1       -0.2926
      2 C         137.9804  141.5970  161.5152 C.ar    1  UNL1        0.2611
      3 O         137.7084  142.8704  160.7705 O.2     1  UNL1       -0.2670
      4 C         138.2137  140.3219  160.7604 C.ar    1  UNL1        0.0623
      5 C         138.4857  139.0486  161.5050 C.ar    1  UNL1        0.0255
      6 C         138.5243  139.0502  163.0045 C.ar    1  UNL1        0.0975
      7 N         138.7963  137.7769  163.7492 N.ar    1  UNL1       -0.2392
      8 C         138.8350  137.7786  165.2486 C.ar    1  UNL1        0.1363
      9 C         138.6016  139.0536  166.0035 C.ar    1  UNL1        0.1658
     10 C         138.3297  140.3270  165.2589 C.ar    1  UNL1        0.0579
     11 C         138.2910  140.3253  163.7594 C.ar    1  UNL1        0.0832
     12 C         137.7857  142.8738  163.7695 C.3     1  UNL1        0.1264
     13 C         138.7252  144.0303  163.5967 C.3     1  UNL1        0.0970
     14 C         143.1382  143.4646  164.2715 C.3     1  UNL1        0.0570
     15 C         142.6497  144.1193  163.0133 C.3     1  UNL1        0.0331
     16 C         141.1787  144.3079  162.7884 C.3     1  UNL1        0.0735
     17 N         140.1962  143.8417  163.8216 N.3     1  UNL1       -0.2710
     18 C         140.6847  143.1871  165.0797 C.3     1  UNL1        0.0735
     19 C         142.1557  142.9985  165.3046 C.3     1  UNL1        0.0331
     20 N         144.6092  143.2760  164.4964 N.3     1  UNL1       -0.2947
     21 H         145.0877  143.9379  163.8854 H       1  UNL1        0.1235
     22 C         145.2383  141.9352  164.2594 C.3     1  UNL1        0.0972
     23 C         142.1907  137.6634  161.3500 C.3     1  UNL1        0.0528
     24 C         142.9526  138.7314  162.0773 C.ar    1  UNL1        0.0689
     25 N         142.9058  138.7981  163.5751 N.ar    1  UNL1       -0.2477
     26 C         143.6677  139.8661  164.3024 C.ar    1  UNL1        0.0955
     27 C         144.4764  140.8672  163.5320 C.ar    1  UNL1        0.0135
     28 C         144.5233  140.8005  162.0343 C.ar    1  UNL1        0.0101
     29 C         143.7614  139.7325  161.3069 C.ar    1  UNL1        0.0817
     30 C         143.8083  139.6658  159.8091 C.1     1  UNL1        0.1016
     31 N         143.8552  139.5991  158.3114 N.1     1  UNL1       -0.1908
     32 O         138.6403  139.0552  167.5030 O.3     1  UNL1       -0.4519
     33 C         139.5976  139.9544  168.2276 C.ar    1  UNL1        0.1455
     34 C         139.1798  140.6213  169.5046 C.ar    1  UNL1        0.0389
     35 C         140.1372  141.5205  170.2292 C.ar    1  UNL1        0.0230
     36 C         141.5123  141.7527  169.6768 C.ar    1  UNL1        0.1219
     37 C         141.9300  141.0858  168.3998 C.ar    1  UNL1        0.0230
     38 C         140.9727  140.1867  167.6752 C.ar    1  UNL1        0.0389
     39 S         142.4696  142.6519  170.4014 S.O2    1  UNL1        0.0572
     40 N         143.4269  143.5511  171.1260 N.3     1  UNL1       -0.2035
     41 O         143.2601  142.8276  169.1388 O.2     1  UNL1       -0.1532
     42 O         141.6790  142.4762  171.6639 O.2     1  UNL1       -0.1532
     43 H         144.1507  143.8676  170.4809 H       1  UNL1        0.1442
     44 H         143.8578  143.0391  171.8959 H       1  UNL1        0.1442
@<TRIPOS>BOND
     1    23    24    1
     2    24    25   ar
     3    25    26   ar
     4    26    27   ar
     5    27    22    1
     6    22    20    1
     7    20    14    1
     8    14    15    1
     9    15    16    1
    10    16    17    1
    11    17    13    1
    12    13    12    1
    13    12     1    1
    14     1     2   ar
    15     2     3    2
    16     2     4   ar
    17     4     5   ar
    18     5     6   ar
    19     6     7   ar
    20     7     8   ar
    21     8     9   ar
    22     9    32    1
    23    32    33    1
    24    33    34   ar
    25    34    35   ar
    26    35    36   ar
    27    36    39    1
    28    39    40    1
    29    39    41    2
    30    39    42    2
    31    36    37   ar
    32    37    38   ar
    33     9    10   ar
    34    10    11   ar
    35    17    18    1
    36    18    19    1
    37    27    28   ar
    38    28    29   ar
    39    29    30    1
    40    30    31    3
    41    29    24   ar
    42    19    14    1
    43    11     1   ar
    44    11     6   ar
    45    38    33   ar
    46    20    21    1
    47    40    43    1
    48    40    44    1
@<TRIPOS>MOLECULE
*****
 44 48 0 0 0
SMALL
GASTEIGER

@<TRIPOS>ATOM
      1 N         140.8596  138.3631  162.3466 N.ar    1  UNL1       -0.2926
      2 C         140.8058  138.5202  160.8559 C.ar    1  UNL1        0.2611
      3 O         139.5963  138.0614  160.0965 O.2     1  UNL1       -0.2670
      4 C         141.9615  139.1361  160.1244 C.ar    1  UNL1        0.0623
      5 C         143.1710  139.5949  160.8837 C.ar    1  UNL1        0.0255
      6 C         143.2249  139.4378  162.3746 C.ar    1  UNL1        0.0975
      7 N         144.4344  139.8966  163.1339 N.ar    1  UNL1       -0.2392
      8 C         144.4882  139.7395  164.6246 C.ar    1  UNL1        0.1363
      9 C         143.3324  139.1236  165.3561 C.ar    1  UNL1        0.1658
     10 C         142.1229  138.6648  164.5968 C.ar    1  UNL1        0.0579
     11 C         142.0692  138.8219  163.1060 C.ar    1  UNL1        0.0832
     12 C         139.7039  137.7472  163.0781 C.3     1  UNL1        0.1264
     13 C         138.3827  138.4560  163.1253 C.3     1  UNL1        0.0970
     14 C         138.2436  142.9241  163.6414 C.3     1  UNL1        0.0570
     15 C         138.7634  142.0570  164.7496 C.3     1  UNL1        0.0331
     16 C         138.8098  140.5676  164.5775 C.3     1  UNL1        0.0735
     17 N         138.3363  139.9453  163.2974 N.3     1  UNL1       -0.2710
     18 C         137.8165  140.8125  162.1893 C.3     1  UNL1        0.0735
     19 C         137.7701  142.3019  162.3614 C.3     1  UNL1        0.0331
     20 N         138.1972  144.4135  163.8135 N.3     1  UNL1       -0.2947
     21 H         137.2556  144.7103  163.5571 H       1  UNL1        0.1235
     22 C         139.1491  145.2866  163.0509 C.3     1  UNL1        0.0972
     23 C         144.7487  143.4100  161.9912 C.3     1  UNL1        0.0528
     24 C         143.3488  143.8791  162.2561 C.ar    1  UNL1        0.0689
     25 N         142.3999  144.0905  161.1139 N.ar    1  UNL1       -0.2477
     26 C         141.0000  144.5597  161.3788 C.ar    1  UNL1        0.0955
     27 C         140.5490  144.8174  162.7860 C.ar    1  UNL1        0.0135
     28 C         141.4979  144.6060  163.9282 C.ar    1  UNL1        0.0101
     29 C         142.8978  144.1368  163.6633 C.ar    1  UNL1        0.0817
     30 C         143.8468  143.9254  164.8056 C.1     1  UNL1        0.1016
     31 N         144.7957  143.7140  165.9479 N.1     1  UNL1       -0.1908
     32 O         143.3863  138.9665  166.8469 O.3     1  UNL1       -0.4519
     33 C         142.5563  139.8551  167.7251 C.ar    1  UNL1        0.1455
     34 C         142.1373  141.2107  167.2385 C.ar    1  UNL1        0.0389
     35 C         141.3073  142.0994  168.1168 C.ar    1  UNL1        0.0230
     36 C         140.8963  141.6324  169.4817 C.ar    1  UNL1        0.1219
     37 C         141.3152  140.2768  169.9684 C.ar    1  UNL1        0.0230
     38 C         142.1452  139.3882  169.0901 C.ar    1  UNL1        0.0389
     39 S         140.0663  142.5211  170.3600 S.O2    1  UNL1        0.0572
     40 N         139.2363  143.4098  171.2383 N.3     1  UNL1       -0.2035
     41 O         139.0185  141.4517  170.4519 O.2     1  UNL1       -0.1532
     42 O         141.1140  143.5905  170.2680 O.2     1  UNL1       -0.1532
     43 H         138.3764  142.9256  171.4963 H       1  UNL1        0.1442
     44 H         139.0061  144.2664  170.7347 H       1  UNL1        0.1442
@<TRIPOS>BOND
     1    23    24    1
     2    24    25   ar
     3    25    26   ar
     4    26    27   ar
     5    27    22    1
     6    22    20    1
     7    20    14    1
     8    14    15    1
     9    15    16    1
    10    16    17    1
    11    17    13    1
    12    13    12    1
    13    12     1    1
    14     1     2   ar
    15     2     3    2
    16     2     4   ar
    17     4     5   ar
    18     5     6   ar
    19     6     7   ar
    20     7     8   ar
    21     8     9   ar
    22     9    32    1
    23    32    33    1
    24    33    34   ar
    25    34    35   ar
    26    35    36   ar
    27    36    39    1
    28    39    40    1
    29    39    41    2
    30    39    42    2
    31    36    37   ar
    32    37    38   ar
    33     9    10   ar
    34    10    11   ar
    35    17    18    1
    36    18    19    1
    37    27    28   ar
    38    28    29   ar
    39    29    30    1
    40    30    31    3
    41    29    24   ar
    42    19    14    1
    43    11     1   ar
    44    11     6   ar
    45    38    33   ar
    46    20    21    1
    47    40    43    1
    48    40    44    1
@<TRIPOS>MOLECULE
*****
 44 48 0 0 0
SMALL
GASTEIGER

@<TRIPOS>ATOM
      1 N         141.2603  144.4048  162.3250 N.ar    1  UNL1       -0.2926
      2 C         141.1424  144.4540  160.8305 C.ar    1  UNL1        0.2611
      3 O         140.0016  145.1895  160.1919 O.2     1  UNL1       -0.2670
      4 C         142.1652  143.7675  159.9745 C.ar    1  UNL1        0.0623
      5 C         143.3058  143.0320  160.6130 C.ar    1  UNL1        0.0255
      6 C         143.4238  142.9828  162.1076 C.ar    1  UNL1        0.0975
      7 N         144.5645  142.2473  162.7461 N.ar    1  UNL1       -0.2392
      8 C         144.6824  142.1982  164.2406 C.ar    1  UNL1        0.1363
      9 C         143.6596  142.8846  165.0966 C.ar    1  UNL1        0.1658
     10 C         142.5189  143.6201  164.4581 C.ar    1  UNL1        0.0579
     11 C         142.4010  143.6693  162.9636 C.ar    1  UNL1        0.0832
     12 C         140.2375  145.0913  163.1810 C.3     1  UNL1        0.1264
     13 C         138.8654  144.5030  163.3276 C.3     1  UNL1        0.0970
     14 C         138.3544  140.4000  165.1035 C.3     1  UNL1        0.0570
     15 C         137.7079  140.7355  163.7922 C.3     1  UNL1        0.0331
     16 C         137.8782  142.1031  163.2002 C.3     1  UNL1        0.0735
     17 N         138.6951  143.1353  163.9195 N.3     1  UNL1       -0.2710
     18 C         139.3416  142.7998  165.2308 C.3     1  UNL1        0.0735
     19 C         139.1713  141.4321  165.8227 C.3     1  UNL1        0.0331
     20 N         138.1841  139.0323  165.6955 N.3     1  UNL1       -0.2947
     21 H         138.6829  139.0323  166.5852 H       1  UNL1        0.1235
     22 C         138.6495  137.8240  164.9383 C.3     1  UNL1        0.0972
     23 C         143.5558  138.1446  161.4994 C.3     1  UNL1        0.0528
     24 C         142.3292  138.0645  162.3591 C.ar    1  UNL1        0.0689
     25 N         141.0041  137.7225  161.7452 N.ar    1  UNL1       -0.2477
     26 C         139.7775  137.6424  162.6049 C.ar    1  UNL1        0.0955
     27 C         139.8761  137.9042  164.0786 C.ar    1  UNL1        0.0135
     28 C         141.2013  138.2461  164.6925 C.ar    1  UNL1        0.0101
     29 C         142.4278  138.3263  163.8328 C.ar    1  UNL1        0.0817
     30 C         143.7530  138.6683  164.4468 C.1     1  UNL1        0.1016
     31 N         145.0782  139.0102  165.0608 N.1     1  UNL1       -0.1908
     32 O         143.7776  142.8354  166.5912 O.3     1  UNL1       -0.4519
     33 C         142.7036  142.1791  167.4071 C.ar    1  UNL1        0.1455
     34 C         142.4662  140.7030  167.2862 C.ar    1  UNL1        0.0389
     35 C         141.3921  140.0467  168.1022 C.ar    1  UNL1        0.0230
     36 C         140.5555  140.8666  169.0390 C.ar    1  UNL1        0.1219
     37 C         140.7928  142.3427  169.1600 C.ar    1  UNL1        0.0230
     38 C         141.8668  142.9990  168.3441 C.ar    1  UNL1        0.0389
     39 S         139.4815  140.2103  169.8549 S.O2    1  UNL1        0.0572
     40 N         138.4074  139.5540  170.6709 N.3     1  UNL1       -0.2035
     41 O         138.9512  139.5433  168.6205 O.2     1  UNL1       -0.1532
     42 O         140.0117  140.8772  171.0894 O.2     1  UNL1       -0.1532
     43 H         137.8240  138.9776  170.0645 H       1  UNL1        0.1442
     44 H         137.8326  140.2699  171.1152 H       1  UNL1        0.1442
@<TRIPOS>BOND
     1    23    24    1
     2    24    25   ar
     3    25    26   ar
     4    26    27   ar
     5    27    22    1
     6    22    20    1
     7    20    14    1
     8    14    15    1
     9    15    16    1
    10    16    17    1
    11    17    13    1
    12    13    12    1
    13    12     1    1
    14     1     2   ar
    15     2     3    2
    16     2     4   ar
    17     4     5   ar
    18     5     6   ar
    19     6     7   ar
    20     7     8   ar
    21     8     9   ar
    22     9    32    1
    23    32    33    1
    24    33    34   ar
    25    34    35   ar
    26    35    36   ar
    27    36    39    1
    28    39    40    1
    29    39    41    2
    30    39    42    2
    31    36    37   ar
    32    37    38   ar
    33     9    10   ar
    34    10    11   ar
    35    17    18    1
    36    18    19    1
    37    27    28   ar
    38    28    29   ar
    39    29    30    1
    40    30    31    3
    41    29    24   ar
    42    19    14    1
    43    11     1   ar
    44    11     6   ar
    45    38    33   ar
    46    20    21    1
    47    40    43    1
    48    40    44    1
@<TRIPOS>MOLECULE
*****
 44 48 0 0 0
SMALL
GASTEIGER

@<TRIPOS>ATOM
      1 N         140.9566  138.3733  162.0199 N.ar    1  UNL1       -0.2926
      2 C         140.9557  138.6861  160.5529 C.ar    1  UNL1        0.2611
      3 O         139.8154  138.2329  159.6900 O.2     1  UNL1       -0.2670
      4 C         142.0950  139.4522  159.9486 C.ar    1  UNL1        0.0623
      5 C         143.2352  139.9054  160.8114 C.ar    1  UNL1        0.0255
      6 C         143.2362  139.5926  162.2785 C.ar    1  UNL1        0.0975
      7 N         144.3764  140.0458  163.1412 N.ar    1  UNL1       -0.2392
      8 C         144.3773  139.7329  164.6082 C.ar    1  UNL1        0.1363
      9 C         143.2380  138.9669  165.2124 C.ar    1  UNL1        0.1658
     10 C         142.0978  138.5137  164.3497 C.ar    1  UNL1        0.0579
     11 C         142.0969  138.8265  162.8827 C.ar    1  UNL1        0.0832
     12 C         139.8172  137.6072  162.6241 C.3     1  UNL1        0.1264
     13 C         138.4538  138.2278  162.7018 C.3     1  UNL1        0.0970
     14 C         137.9772  142.4245  164.2544 C.3     1  UNL1        0.0570
     15 C         137.5797  142.0963  162.8457 C.3     1  UNL1        0.0331
     16 C         137.7386  140.6974  162.3282 C.3     1  UNL1        0.0735
     17 N         138.2949  139.6267  163.2194 N.3     1  UNL1       -0.2710
     18 C         138.6924  139.9549  164.6280 C.3     1  UNL1        0.0735
     19 C         138.5335  141.3539  165.1455 C.3     1  UNL1        0.0331
     20 N         137.8183  143.8234  164.7719 N.3     1  UNL1       -0.2947
     21 H         137.1321  144.2828  164.1731 H       1  UNL1        0.1235
     22 C         139.0071  144.7351  164.8465 C.3     1  UNL1        0.0972
     23 C         144.0035  143.4047  161.8025 C.3     1  UNL1        0.0528
     24 C         142.7544  143.7373  162.5635 C.ar    1  UNL1        0.0689
     25 N         142.6395  143.3708  164.0134 N.ar    1  UNL1       -0.2477
     26 C         141.3904  143.7034  164.7744 C.ar    1  UNL1        0.0955
     27 C         140.2562  144.4025  164.0855 C.ar    1  UNL1        0.0135
     28 C         140.3711  144.7690  162.6355 C.ar    1  UNL1        0.0101
     29 C         141.6202  144.4364  161.8745 C.ar    1  UNL1        0.0817
     30 C         141.7350  144.8030  160.4245 C.1     1  UNL1        0.1016
     31 N         141.8498  145.1695  158.9745 N.1     1  UNL1       -0.1908
     32 O         143.2390  138.6541  166.6795 O.3     1  UNL1       -0.4519
     33 C         142.4916  139.5363  167.6350 C.ar    1  UNL1        0.1455
     34 C         141.7367  140.7269  167.1225 C.ar    1  UNL1        0.0389
     35 C         140.9893  141.6092  168.0781 C.ar    1  UNL1        0.0230
     36 C         140.9968  141.3009  169.5460 C.ar    1  UNL1        0.1219
     37 C         141.7517  140.1103  170.0585 C.ar    1  UNL1        0.0230
     38 C         142.4991  139.2280  169.1030 C.ar    1  UNL1        0.0389
     39 S         140.2494  142.1832  170.5015 S.O2    1  UNL1        0.0572
     40 N         139.5020  143.0655  171.4570 N.3     1  UNL1       -0.2035
     41 O         140.0268  143.1821  169.4049 O.2     1  UNL1       -0.1532
     42 O         140.4720  141.1842  171.5980 O.2     1  UNL1       -0.1532
     43 H         139.1898  143.9059  170.9706 H       1  UNL1        0.1442
     44 H         140.1153  143.3273  172.2288 H       1  UNL1        0.1442
@<TRIPOS>BOND
     1    23    24    1
     2    24    25   ar
     3    25    26   ar
     4    26    27   ar
     5    27    22    1
     6    22    20    1
     7    20    14    1
     8    14    15    1
     9    15    16    1
    10    16    17    1
    11    17    13    1
    12    13    12    1
    13    12     1    1
    14     1     2   ar
    15     2     3    2
    16     2     4   ar
    17     4     5   ar
    18     5     6   ar
    19     6     7   ar
    20     7     8   ar
    21     8     9   ar
    22     9    32    1
    23    32    33    1
    24    33    34   ar
    25    34    35   ar
    26    35    36   ar
    27    36    39    1
    28    39    40    1
    29    39    41    2
    30    39    42    2
    31    36    37   ar
    32    37    38   ar
    33     9    10   ar
    34    10    11   ar
    35    17    18    1
    36    18    19    1
    37    27    28   ar
    38    28    29   ar
    39    29    30    1
    40    30    31    3
    41    29    24   ar
    42    19    14    1
    43    11     1   ar
    44    11     6   ar
    45    38    33   ar
    46    20    21    1
    47    40    43    1
    48    40    44    1
@<TRIPOS>MOLECULE
*****
 44 48 0 0 0
SMALL
GASTEIGER

@<TRIPOS>ATOM
      1 N         140.4665  138.5737  161.6644 N.ar    1  UNL1       -0.2926
      2 C         140.1523  138.9343  160.2427 C.ar    1  UNL1        0.2611
      3 O         140.9425  138.3255  159.1223 O.2     1  UNL1       -0.2670
      4 C         139.0481  139.9037  159.9413 C.ar    1  UNL1        0.0623
      5 C         138.2580  140.5125  161.0615 C.ar    1  UNL1        0.0255
      6 C         138.5721  140.1519  162.4833 C.ar    1  UNL1        0.0975
      7 N         137.7820  140.7608  163.6035 N.ar    1  UNL1       -0.2392
      8 C         138.0961  140.4002  165.0252 C.ar    1  UNL1        0.1363
      9 C         139.2003  139.4307  165.3267 C.ar    1  UNL1        0.1658
     10 C         139.9905  138.8219  164.2064 C.ar    1  UNL1        0.0579
     11 C         139.6763  139.1825  162.7847 C.ar    1  UNL1        0.0832
     12 C         141.5707  137.6043  161.9658 C.3     1  UNL1        0.1264
     13 C         143.0012  138.0146  161.7773 C.3     1  UNL1        0.0970
     14 C         144.3959  142.0417  163.2221 C.3     1  UNL1        0.0570
     15 C         144.2294  140.9122  164.1951 C.3     1  UNL1        0.0331
     16 C         143.7645  139.5698  163.7135 C.3     1  UNL1        0.0735
     17 N         143.4661  139.3569  162.2589 N.3     1  UNL1       -0.2710
     18 C         143.6326  140.4864  161.2860 C.3     1  UNL1        0.0735
     19 C         144.0975  141.8287  161.7676 C.3     1  UNL1        0.0331
     20 N         144.8608  143.3840  163.7037 N.3     1  UNL1       -0.2947
     21 H         145.7169  143.2259  164.2351 H       1  UNL1        0.1235
     22 C         143.9648  144.2231  164.5657 C.3     1  UNL1        0.0972
     23 C         138.0471  144.2824  163.5776 C.3     1  UNL1        0.0528
     24 C         139.5265  144.2676  163.8246 C.ar    1  UNL1        0.0689
     25 N         140.0986  143.3922  164.9000 N.ar    1  UNL1       -0.2477
     26 C         141.5780  143.3774  165.1470 C.ar    1  UNL1        0.0955
     27 C         142.4854  144.2379  164.3187 C.ar    1  UNL1        0.0135
     28 C         141.9133  145.1133  163.2434 C.ar    1  UNL1        0.0101
     29 C         140.4338  145.1281  162.9963 C.ar    1  UNL1        0.0817
     30 C         139.8618  146.0036  161.9209 C.1     1  UNL1        0.1016
     31 N         139.2897  146.8790  160.8456 N.1     1  UNL1       -0.1908
     32 O         139.5145  139.0701  166.7484 O.3     1  UNL1       -0.4519
     33 C         140.2799  140.0272  167.6133 C.ar    1  UNL1        0.1455
     34 C         139.6315  140.6246  168.8268 C.ar    1  UNL1        0.0389
     35 C         140.3971  141.5817  169.6918 C.ar    1  UNL1        0.0230
     36 C         141.8109  141.9413  169.3431 C.ar    1  UNL1        0.1219
     37 C         142.4593  141.3439  168.1296 C.ar    1  UNL1        0.0230
     38 C         141.6939  140.3868  167.2647 C.ar    1  UNL1        0.0389
     39 S         142.5764  142.8983  170.2080 S.O2    1  UNL1        0.0572
     40 N         143.3420  143.8554  171.0730 N.3     1  UNL1       -0.2035
     41 O         141.3513  143.7526  170.3471 O.2     1  UNL1       -0.1532
     42 O         143.8015  142.0441  170.0690 O.2     1  UNL1       -0.1532
     43 H         142.7300  144.6200  171.3582 H       1  UNL1        0.1442
     44 H         144.1324  144.2301  170.5484 H       1  UNL1        0.1442
@<TRIPOS>BOND
     1    23    24    1
     2    24    25   ar
     3    25    26   ar
     4    26    27   ar
     5    27    22    1
     6    22    20    1
     7    20    14    1
     8    14    15    1
     9    15    16    1
    10    16    17    1
    11    17    13    1
    12    13    12    1
    13    12     1    1
    14     1     2   ar
    15     2     3    2
    16     2     4   ar
    17     4     5   ar
    18     5     6   ar
    19     6     7   ar
    20     7     8   ar
    21     8     9   ar
    22     9    32    1
    23    32    33    1
    24    33    34   ar
    25    34    35   ar
    26    35    36   ar
    27    36    39    1
    28    39    40    1
    29    39    41    2
    30    39    42    2
    31    36    37   ar
    32    37    38   ar
    33     9    10   ar
    34    10    11   ar
    35    17    18    1
    36    18    19    1
    37    27    28   ar
    38    28    29   ar
    39    29    30    1
    40    30    31    3
    41    29    24   ar
    42    19    14    1
    43    11     1   ar
    44    11     6   ar
    45    38    33   ar
    46    20    21    1
    47    40    43    1
    48    40    44    1
@<TRIPOS>MOLECULE
*****
 44 48 0 0 0
SMALL
GASTEIGER

@<TRIPOS>ATOM
      1 N         140.7235  144.6640  162.6632 N.ar    1  UNL1       -0.2926
      2 C         140.5375  145.3518  161.3433 C.ar    1  UNL1        0.2611
      3 O         139.5200  146.4451  161.2040 O.2     1  UNL1       -0.2670
      4 C         141.3691  144.9463  160.1625 C.ar    1  UNL1        0.0623
      5 C         142.3865  143.8530  160.3017 C.ar    1  UNL1        0.0255
      6 C         142.5725  143.1652  161.6217 C.ar    1  UNL1        0.0975
      7 N         143.5900  142.0719  161.7609 N.ar    1  UNL1       -0.2392
      8 C         143.7760  141.3841  163.0808 C.ar    1  UNL1        0.1363
      9 C         142.9445  141.7896  164.2616 C.ar    1  UNL1        0.1658
     10 C         141.9270  142.8828  164.1224 C.ar    1  UNL1        0.0579
     11 C         141.7410  143.5706  162.8025 C.ar    1  UNL1        0.0832
     12 C         139.8920  145.0695  163.8440 C.3     1  UNL1        0.1264
     13 C         138.5460  144.4447  164.0634 C.3     1  UNL1        0.0970
     14 C         137.6829  140.3344  162.4477 C.3     1  UNL1        0.0570
     15 C         137.7788  141.5031  161.5122 C.3     1  UNL1        0.0331
     16 C         138.0665  142.8732  162.0508 C.3     1  UNL1        0.0735
     17 N         138.2583  143.0746  163.5248 N.3     1  UNL1       -0.2710
     18 C         138.1624  141.9060  164.4602 C.3     1  UNL1        0.0735
     19 C         137.8747  140.5359  163.9217 C.3     1  UNL1        0.0331
     20 N         137.3952  138.9643  161.9092 N.3     1  UNL1       -0.2947
     21 H         136.4514  138.7217  162.2104 H       1  UNL1        0.1235
     22 C         138.2787  137.8110  162.2824 C.3     1  UNL1        0.0972
     23 C         144.1968  138.1412  161.3509 C.3     1  UNL1        0.0528
     24 C         142.7172  138.0586  161.5838 C.ar    1  UNL1        0.0689
     25 N         142.1902  137.7228  162.9474 N.ar    1  UNL1       -0.2477
     26 C         140.7107  137.6402  163.1802 C.ar    1  UNL1        0.0955
     27 C         139.7582  137.8935  162.0495 C.ar    1  UNL1        0.0135
     28 C         140.2852  138.2294  160.6860 C.ar    1  UNL1        0.0101
     29 C         141.7648  138.3120  160.4531 C.ar    1  UNL1        0.0817
     30 C         142.2918  138.6478  159.0894 C.1     1  UNL1        0.1016
     31 N         142.8187  138.9837  157.7258 N.1     1  UNL1       -0.1908
     32 O         143.1305  141.1017  165.5816 O.3     1  UNL1       -0.4519
     33 C         142.3256  141.5324  166.7718 C.ar    1  UNL1        0.1455
     34 C         142.9667  142.3477  167.8555 C.ar    1  UNL1        0.0389
     35 C         142.1617  142.7784  169.0457 C.ar    1  UNL1        0.0230
     36 C         140.7158  142.3939  169.1522 C.ar    1  UNL1        0.1219
     37 C         140.0747  141.5787  168.0685 C.ar    1  UNL1        0.0230
     38 C         140.8796  141.1479  166.8783 C.ar    1  UNL1        0.0389
     39 S         139.9109  142.8247  170.3424 S.O2    1  UNL1        0.0572
     40 N         139.1059  143.2554  171.5326 N.3     1  UNL1       -0.2035
     41 O         140.6389  144.1360  170.3601 O.2     1  UNL1       -0.1532
     42 O         139.1829  141.5133  170.3246 O.2     1  UNL1       -0.1532
     43 H         139.3902  144.1937  171.8138 H       1  UNL1        0.1442
     44 H         139.2650  142.6066  172.3035 H       1  UNL1        0.1442
@<TRIPOS>BOND
     1    23    24    1
     2    24    25   ar
     3    25    26   ar
     4    26    27   ar
     5    27    22    1
     6    22    20    1
     7    20    14    1
     8    14    15    1
     9    15    16    1
    10    16    17    1
    11    17    13    1
    12    13    12    1
    13    12     1    1
    14     1     2   ar
    15     2     3    2
    16     2     4   ar
    17     4     5   ar
    18     5     6   ar
    19     6     7   ar
    20     7     8   ar
    21     8     9   ar
    22     9    32    1
    23    32    33    1
    24    33    34   ar
    25    34    35   ar
    26    35    36   ar
    27    36    39    1
    28    39    40    1
    29    39    41    2
    30    39    42    2
    31    36    37   ar
    32    37    38   ar
    33     9    10   ar
    34    10    11   ar
    35    17    18    1
    36    18    19    1
    37    27    28   ar
    38    28    29   ar
    39    29    30    1
    40    30    31    3
    41    29    24   ar
    42    19    14    1
    43    11     1   ar
    44    11     6   ar
    45    38    33   ar
    46    20    21    1
    47    40    43    1
    48    40    44    1
@<TRIPOS>MOLECULE
*****
 44 48 0 0 0
SMALL
GASTEIGER

@<TRIPOS>ATOM
      1 N         138.9833  143.2099  162.4149 N.ar    1  UNL1       -0.2926
      2 C         139.2475  143.5307  160.9736 C.ar    1  UNL1        0.2611
      3 O         139.4099  144.9576  160.5405 O.2     1  UNL1       -0.2670
      4 C         139.3493  142.4247  159.9655 C.ar    1  UNL1        0.0623
      5 C         139.1869  140.9978  160.3986 C.ar    1  UNL1        0.0255
      6 C         138.9227  140.6769  161.8399 C.ar    1  UNL1        0.0975
      7 N         138.7603  139.2500  162.2730 N.ar    1  UNL1       -0.2392
      8 C         138.4961  138.9292  163.7142 C.ar    1  UNL1        0.1363
      9 C         138.3943  140.0352  164.7224 C.ar    1  UNL1        0.1658
     10 C         138.5567  141.4621  164.2893 C.ar    1  UNL1        0.0579
     11 C         138.8209  141.7829  162.8480 C.ar    1  UNL1        0.0832
     12 C         138.8815  144.3159  163.4230 C.3     1  UNL1        0.1264
     13 C         140.0803  145.1638  163.7297 C.3     1  UNL1        0.0970
     14 C         144.1358  143.2592  164.1486 C.3     1  UNL1        0.0570
     15 C         143.8933  144.2789  163.0755 C.3     1  UNL1        0.0331
     16 C         142.5415  144.9138  162.9359 C.3     1  UNL1        0.0735
     17 N         141.4321  144.5289  163.8693 N.3     1  UNL1       -0.2710
     18 C         141.6746  143.5092  164.9423 C.3     1  UNL1        0.0735
     19 C         143.0264  142.8744  165.0819 C.3     1  UNL1        0.0331
     20 N         145.4876  142.6243  164.2882 N.3     1  UNL1       -0.2947
     21 H         146.1109  143.1147  163.6468 H       1  UNL1        0.1235
     22 C         145.6587  141.1581  164.0220 C.3     1  UNL1        0.0972
     23 C         141.6512  138.2340  160.6470 C.3     1  UNL1        0.0528
     24 C         142.6531  138.9650  161.4908 C.ar    1  UNL1        0.0689
     25 N         143.5581  139.9850  160.8659 N.ar    1  UNL1       -0.2477
     26 C         144.5600  140.7160  161.7096 C.ar    1  UNL1        0.0955
     27 C         144.6568  140.4271  163.1783 C.ar    1  UNL1        0.0135
     28 C         143.7518  139.4071  163.8032 C.ar    1  UNL1        0.0101
     29 C         142.7499  138.6761  162.9595 C.ar    1  UNL1        0.0817
     30 C         141.8449  137.6561  163.5845 C.1     1  UNL1        0.1016
     31 N         140.9399  136.6362  164.2095 N.1     1  UNL1       -0.1908
     32 O         138.1301  139.7143  166.1637 O.3     1  UNL1       -0.4519
     33 C         139.2523  139.7514  167.1582 C.ar    1  UNL1        0.1455
     34 C         138.9555  139.9307  168.6176 C.ar    1  UNL1        0.0389
     35 C         140.0779  139.9677  169.6122 C.ar    1  UNL1        0.0230
     36 C         141.4969  139.8255  169.1473 C.ar    1  UNL1        0.1219
     37 C         141.7937  139.6462  167.6879 C.ar    1  UNL1        0.0230
     38 C         140.6714  139.6091  166.6934 C.ar    1  UNL1        0.0389
     39 S         142.6191  139.8626  170.1418 S.O2    1  UNL1        0.0572
     40 N         143.7414  139.8996  171.1364 N.3     1  UNL1       -0.2035
     41 O         142.2122  141.2476  170.5494 O.2     1  UNL1       -0.1532
     42 O         143.0261  138.4776  169.7343 O.2     1  UNL1       -0.1532
     43 H         143.7350  140.7959  171.6232 H       1  UNL1        0.1442
     44 H         144.6305  139.7831  170.6503 H       1  UNL1        0.1442
@<TRIPOS>BOND
     1    23    24    1
     2    24    25   ar
     3    25    26   ar
     4    26    27   ar
     5    27    22    1
     6    22    20    1
     7    20    14    1
     8    14    15    1
     9    15    16    1
    10    16    17    1
    11    17    13    1
    12    13    12    1
    13    12     1    1
    14     1     2   ar
    15     2     3    2
    16     2     4   ar
    17     4     5   ar
    18     5     6   ar
    19     6     7   ar
    20     7     8   ar
    21     8     9   ar
    22     9    32    1
    23    32    33    1
    24    33    34   ar
    25    34    35   ar
    26    35    36   ar
    27    36    39    1
    28    39    40    1
    29    39    41    2
    30    39    42    2
    31    36    37   ar
    32    37    38   ar
    33     9    10   ar
    34    10    11   ar
    35    17    18    1
    36    18    19    1
    37    27    28   ar
    38    28    29   ar
    39    29    30    1
    40    30    31    3
    41    29    24   ar
    42    19    14    1
    43    11     1   ar
    44    11     6   ar
    45    38    33   ar
    46    20    21    1
    47    40    43    1
    48    40    44    1
