@<TRIPOS>MOLECULE
*****
 33 36 0 0 0
SMALL
GASTEIGER

@<TRIPOS>ATOM
      1 C         142.4712  140.3011  166.1116 C.ar    1  UNL1       -0.0019
      2 C         142.3923  139.6380  167.4547 C.ar    1  UNL1       -0.0003
      3 C         142.6387  140.4359  168.7007 C.ar    1  UNL1        0.0038
      4 C         142.9640  141.8971  168.6036 C.ar    1  UNL1        0.0712
      5 C         143.0429  142.5602  167.2604 C.ar    1  UNL1        0.0016
      6 C         142.7964  141.7622  166.0144 C.ar    1  UNL1        0.0040
      7 C         143.2104  142.6950  169.8496 C.3     1  UNL1        0.4186
      8 F         143.4568  143.4930  171.0956 F       1  UNL1       -0.1659
      9 F         144.5727  142.0798  169.9742 F       1  UNL1       -0.1659
     10 F         141.8481  143.3103  169.7250 F       1  UNL1       -0.1659
     11 C         140.8238  139.3019  164.3686 C.2     1  UNL1        0.0579
     12 C         142.2248  139.5032  164.8656 C.2     1  UNL1        0.0044
     13 C         138.6059  140.4342  159.5678 C.3     1  UNL1        0.1103
     14 C         138.8523  141.2322  160.8138 C.3     1  UNL1        0.0460
     15 C         139.5094  140.5887  161.9987 C.3     1  UNL1        0.0957
     16 N         139.9202  139.1474  161.9376 N.am    1  UNL1       -0.2759
     17 C         140.5774  138.5039  163.1227 C.2     1  UNL1        0.2492
     18 O         140.9882  137.0626  163.0616 O.2     1  UNL1       -0.2699
     19 C         139.6738  138.3494  160.6917 C.3     1  UNL1        0.0957
     20 C         139.0166  138.9929  159.5067 C.3     1  UNL1        0.0460
     21 C         135.5788  141.2117  155.3117 C.3     1  UNL1        0.0756
     22 C         136.5573  141.4350  156.4265 C.ar    1  UNL1        0.1609
     23 N         137.3175  142.7006  156.6921 N.ar    1  UNL1       -0.2076
     24 C         138.1774  142.4797  157.9012 C.ar    1  UNL1        0.1968
     25 N         137.9487  141.0776  158.3828 N.ar    1  UNL1       -0.2323
     26 N         136.9474  140.4320  157.4714 N.ar    1  UNL1       -0.1531
     27 C         142.8753  142.4253  164.6713 C.3     1  UNL1        0.1776
     28 N         141.6631  143.0925  164.0919 N.ar    1  UNL1       -0.1467
     29 N         141.6287  143.9349  162.8513 N.ar    1  UNL1       -0.0451
     30 N         140.2169  144.3975  162.6441 N.ar    1  UNL1       -0.1123
     31 C         139.3788  143.8409  163.7567 C.ar    1  UNL1        0.1838
     32 C         137.9055  144.0535  163.9420 C.3     1  UNL1        0.0776
     33 N         140.2726  143.0344  164.6515 N.ar    1  UNL1       -0.1339
@<TRIPOS>BOND
     1    21    22    1
     2    22    23   ar
     3    23    24   ar
     4    24    25   ar
     5    25    13    1
     6    13    14    1
     7    14    15    1
     8    15    16    1
     9    16    17   am
    10    17    18    2
    11    17    11    1
    12    11    12    2
    13    12     1    1
    14     1     2   ar
    15     2     3   ar
    16     3     4   ar
    17     4     7    1
    18     7     8    1
    19     7     9    1
    20     7    10    1
    21     4     5   ar
    22     5     6   ar
    23     6    27    1
    24    27    28    1
    25    28    29   ar
    26    29    30   ar
    27    30    31   ar
    28    31    32    1
    29    31    33   ar
    30    16    19    1
    31    19    20    1
    32    25    26   ar
    33    26    22   ar
    34    20    13    1
    35     6     1   ar
    36    33    28   ar
@<TRIPOS>MOLECULE
*****
 33 36 0 0 0
SMALL
GASTEIGER

@<TRIPOS>ATOM
      1 C         139.8434  140.3386  166.1043 C.ar    1  UNL1       -0.0019
      2 C         139.2491  139.6043  167.2695 C.ar    1  UNL1       -0.0003
      3 C         139.3448  140.1845  168.6494 C.ar    1  UNL1        0.0038
      4 C         140.0347  141.4991  168.8642 C.ar    1  UNL1        0.0712
      5 C         140.6289  142.2334  167.6990 C.ar    1  UNL1        0.0016
      6 C         140.5333  141.6531  166.3190 C.ar    1  UNL1        0.0040
      7 C         140.1303  142.0793  170.2441 C.3     1  UNL1        0.4186
      8 F         140.2259  142.6595  171.6240 F       1  UNL1       -0.1659
      9 F         140.1700  140.6961  170.8229 F       1  UNL1       -0.1659
     10 F         140.0905  143.4625  169.6652 F       1  UNL1       -0.1659
     11 C         138.4498  139.8162  163.9748 C.2     1  UNL1        0.0579
     12 C         139.7478  139.7584  164.7244 C.2     1  UNL1        0.0044
     13 C         138.4620  141.9445  159.0029 C.3     1  UNL1        0.1103
     14 C         138.5576  142.5247  160.3828 C.3     1  UNL1        0.0460
     15 C         138.5217  141.6219  161.5801 C.3     1  UNL1        0.0957
     16 N         138.3901  140.1388  161.3975 N.am    1  UNL1       -0.2759
     17 C         138.3542  139.2360  162.5949 C.2     1  UNL1        0.2492
     18 O         138.2226  137.7530  162.4123 O.2     1  UNL1       -0.2699
     19 C         138.2945  139.5586  160.0176 C.3     1  UNL1        0.0957
     20 C         138.3304  140.4615  158.8203 C.3     1  UNL1        0.0460
     21 C         137.1386  144.3815  154.5094 C.3     1  UNL1        0.0756
     22 C         137.8896  143.9675  155.7401 C.ar    1  UNL1        0.1609
     23 N         139.2169  144.5057  156.1858 N.ar    1  UNL1       -0.2076
     24 C         139.5928  143.8134  157.4623 C.ar    1  UNL1        0.1968
     25 N         138.4979  142.8473  157.8055 N.ar    1  UNL1       -0.2323
     26 N         137.4453  142.9425  156.7411 N.ar    1  UNL1       -0.1531
     27 C         141.1276  142.3874  165.1538 C.3     1  UNL1        0.1776
     28 N         140.2975  143.3734  164.3864 N.ar    1  UNL1       -0.1467
     29 N         138.8190  143.5818  164.5299 N.ar    1  UNL1       -0.0451
     30 N         138.4080  144.6613  163.5730 N.ar    1  UNL1       -0.1123
     31 C         139.6325  145.1201  162.8380 C.ar    1  UNL1        0.1838
     32 C         139.6808  146.1874  161.7852 C.3     1  UNL1        0.0776
     33 N         140.8003  144.3241  163.3407 N.ar    1  UNL1       -0.1339
@<TRIPOS>BOND
     1    21    22    1
     2    22    23   ar
     3    23    24   ar
     4    24    25   ar
     5    25    13    1
     6    13    14    1
     7    14    15    1
     8    15    16    1
     9    16    17   am
    10    17    18    2
    11    17    11    1
    12    11    12    2
    13    12     1    1
    14     1     2   ar
    15     2     3   ar
    16     3     4   ar
    17     4     7    1
    18     7     8    1
    19     7     9    1
    20     7    10    1
    21     4     5   ar
    22     5     6   ar
    23     6    27    1
    24    27    28    1
    25    28    29   ar
    26    29    30   ar
    27    30    31   ar
    28    31    32    1
    29    31    33   ar
    30    16    19    1
    31    19    20    1
    32    25    26   ar
    33    26    22   ar
    34    20    13    1
    35     6     1   ar
    36    33    28   ar
@<TRIPOS>MOLECULE
*****
 33 36 0 0 0
SMALL
GASTEIGER

@<TRIPOS>ATOM
      1 C         142.2629  141.2580  166.5448 C.ar    1  UNL1       -0.0019
      2 C         142.9972  141.9740  167.6394 C.ar    1  UNL1       -0.0003
      3 C         142.2423  142.5279  168.8113 C.ar    1  UNL1        0.0038
      4 C         140.7531  142.3658  168.8886 C.ar    1  UNL1        0.0712
      5 C         140.0188  141.6498  167.7940 C.ar    1  UNL1        0.0016
      6 C         140.7737  141.0958  166.6221 C.ar    1  UNL1        0.0040
      7 C         139.9982  142.9197  170.0605 C.3     1  UNL1        0.4186
      8 F         139.2433  143.4736  171.2324 F       1  UNL1       -0.1659
      9 F         139.2131  141.6452  170.1572 F       1  UNL1       -0.1659
     10 F         140.7832  144.1941  169.9638 F       1  UNL1       -0.1659
     11 C         143.3375  141.5857  164.2022 C.2     1  UNL1        0.0579
     12 C         143.0178  140.7041  165.3730 C.2     1  UNL1        0.0044
     13 C         141.8642  139.1351  159.6116 C.3     1  UNL1        0.1103
     14 C         141.1093  139.6890  160.7835 C.3     1  UNL1        0.0460
     15 C         141.8521  140.3212  161.9231 C.3     1  UNL1        0.0957
     16 N         143.3497  140.3995  161.8907 N.am    1  UNL1       -0.2759
     17 C         144.0924  141.0318  163.0304 C.2     1  UNL1        0.2492
     18 O         145.5900  141.1101  162.9980 O.2     1  UNL1       -0.2699
     19 C         144.1045  139.8456  160.7189 C.3     1  UNL1        0.0957
     20 C         143.3618  139.2134  159.5793 C.3     1  UNL1        0.0460
     21 C         140.7331  136.2259  155.3527 C.3     1  UNL1        0.0756
     22 C         140.6016  137.1657  156.5144 C.ar    1  UNL1        0.1609
     23 N         139.3554  137.8943  156.9223 N.ar    1  UNL1       -0.2076
     24 C         139.6768  138.7208  158.1322 C.ar    1  UNL1        0.1968
     25 N         141.1215  138.5029  158.4720 N.ar    1  UNL1       -0.2323
     26 N         141.6930  137.5418  157.4722 N.ar    1  UNL1       -0.1531
     27 C         140.0394  140.3798  165.5275 C.3     1  UNL1        0.1776
     28 N         139.1057  141.1374  164.6306 N.ar    1  UNL1       -0.1467
     29 N         138.0221  140.5419  163.7812 N.ar    1  UNL1       -0.0451
     30 N         137.3383  141.6598  163.0513 N.ar    1  UNL1       -0.1123
     31 C         137.9993  142.9461  163.4496 C.ar    1  UNL1        0.1838
     32 C         137.6323  144.3150  162.9582 C.3     1  UNL1        0.0776
     33 N         139.0915  142.6232  164.4257 N.ar    1  UNL1       -0.1339
@<TRIPOS>BOND
     1    21    22    1
     2    22    23   ar
     3    23    24   ar
     4    24    25   ar
     5    25    13    1
     6    13    14    1
     7    14    15    1
     8    15    16    1
     9    16    17   am
    10    17    18    2
    11    17    11    1
    12    11    12    2
    13    12     1    1
    14     1     2   ar
    15     2     3   ar
    16     3     4   ar
    17     4     7    1
    18     7     8    1
    19     7     9    1
    20     7    10    1
    21     4     5   ar
    22     5     6   ar
    23     6    27    1
    24    27    28    1
    25    28    29   ar
    26    29    30   ar
    27    30    31   ar
    28    31    32    1
    29    31    33   ar
    30    16    19    1
    31    19    20    1
    32    25    26   ar
    33    26    22   ar
    34    20    13    1
    35     6     1   ar
    36    33    28   ar
@<TRIPOS>MOLECULE
*****
 33 36 0 0 0
SMALL
GASTEIGER

@<TRIPOS>ATOM
      1 C         138.8748  138.8593  162.5133 C.ar    1  UNL1       -0.0019
      2 C         139.2650  137.7088  163.3931 C.ar    1  UNL1       -0.0003
      3 C         139.0365  137.7857  164.8736 C.ar    1  UNL1        0.0038
      4 C         138.4179  139.0131  165.4743 C.ar    1  UNL1        0.0712
      5 C         138.0277  140.1637  164.5945 C.ar    1  UNL1        0.0016
      6 C         138.2562  140.0867  163.1139 C.ar    1  UNL1        0.0040
      7 C         138.1894  139.0900  166.9548 C.3     1  UNL1        0.4186
      8 F         137.9609  139.1669  168.4353 F       1  UNL1       -0.1659
      9 F         139.0164  140.3398  167.0175 F       1  UNL1       -0.1659
     10 F         137.3624  137.8402  166.8921 F       1  UNL1       -0.1659
     11 C         140.5015  138.7544  160.4901 C.2     1  UNL1        0.0579
     12 C         139.1033  138.7825  161.0328 C.2     1  UNL1        0.0044
     13 C         144.3597  140.6171  157.1895 C.3     1  UNL1        0.1103
     14 C         144.1312  140.6939  158.6700 C.3     1  UNL1        0.0460
     15 C         142.9213  140.0474  159.2767 C.3     1  UNL1        0.0957
     16 N         141.9399  139.3240  158.4029 N.am    1  UNL1       -0.2759
     17 C         140.7300  138.6775  159.0097 C.2     1  UNL1        0.2492
     18 O         139.7485  137.9541  158.1359 O.2     1  UNL1       -0.2699
     19 C         142.1684  139.2472  156.9224 C.3     1  UNL1        0.0957
     20 C         143.3783  139.8937  156.3158 C.3     1  UNL1        0.0460
     21 C         148.3525  141.7246  153.9166 C.3     1  UNL1        0.0756
     22 C         147.4049  141.7727  155.0784 C.ar    1  UNL1        0.1609
     23 N         147.4581  142.7444  156.2199 N.ar    1  UNL1       -0.2076
     24 C         146.3239  142.4298  157.1497 C.ar    1  UNL1        0.1968
     25 N         145.5697  141.2636  156.5828 N.ar    1  UNL1       -0.2323
     26 N         146.2378  140.8575  155.3027 N.ar    1  UNL1       -0.1531
     27 C         137.8661  141.2372  162.2341 C.3     1  UNL1        0.1776
     28 N         138.4635  142.5938  162.4644 N.ar    1  UNL1       -0.1467
     29 N         137.7774  143.9088  162.2407 N.ar    1  UNL1       -0.0451
     30 N         138.7416  145.0012  162.5969 N.ar    1  UNL1       -0.1123
     31 C         140.0237  144.3613  163.0407 C.ar    1  UNL1        0.1838
     32 C         141.2605  145.0826  163.4879 C.3     1  UNL1        0.0776
     33 N         139.8517  142.8734  162.9588 N.ar    1  UNL1       -0.1339
@<TRIPOS>BOND
     1    21    22    1
     2    22    23   ar
     3    23    24   ar
     4    24    25   ar
     5    25    13    1
     6    13    14    1
     7    14    15    1
     8    15    16    1
     9    16    17   am
    10    17    18    2
    11    17    11    1
    12    11    12    2
    13    12     1    1
    14     1     2   ar
    15     2     3   ar
    16     3     4   ar
    17     4     7    1
    18     7     8    1
    19     7     9    1
    20     7    10    1
    21     4     5   ar
    22     5     6   ar
    23     6    27    1
    24    27    28    1
    25    28    29   ar
    26    29    30   ar
    27    30    31   ar
    28    31    32    1
    29    31    33   ar
    30    16    19    1
    31    19    20    1
    32    25    26   ar
    33    26    22   ar
    34    20    13    1
    35     6     1   ar
    36    33    28   ar
@<TRIPOS>MOLECULE
*****
 33 36 0 0 0
SMALL
GASTEIGER

@<TRIPOS>ATOM
      1 C         140.8583  139.7540  165.6670 C.ar    1  UNL1       -0.0019
      2 C         140.0255  140.1657  166.8447 C.ar    1  UNL1       -0.0003
      3 C         140.6065  140.1200  168.2268 C.ar    1  UNL1        0.0038
      4 C         142.0204  139.6627  168.4313 C.ar    1  UNL1        0.0712
      5 C         142.8532  139.2510  167.2536 C.ar    1  UNL1        0.0016
      6 C         142.2721  139.2967  165.8715 C.ar    1  UNL1        0.0040
      7 C         142.6014  139.6170  169.8134 C.3     1  UNL1        0.4186
      8 F         143.1824  139.5713  171.1955 F       1  UNL1       -0.1659
      9 F         142.2996  141.0758  169.9885 F       1  UNL1       -0.1659
     10 F         142.9032  138.1582  169.6383 F       1  UNL1       -0.1659
     11 C         139.8265  138.5336  163.6186 C.2     1  UNL1        0.0579
     12 C         140.2773  139.7997  164.2849 C.2     1  UNL1        0.0044
     13 C         141.9266  138.1151  158.6523 C.3     1  UNL1        0.1103
     14 C         142.5076  138.0695  160.0344 C.3     1  UNL1        0.0460
     15 C         141.6139  138.2242  161.2291 C.3     1  UNL1        0.0957
     16 N         140.1392  138.4245  161.0417 N.am    1  UNL1       -0.2759
     17 C         139.2455  138.5792  162.2365 C.2     1  UNL1        0.2492
     18 O         137.7708  138.7796  162.0490 O.2     1  UNL1       -0.2699
     19 C         139.5582  138.4702  159.6595 C.3     1  UNL1        0.0957
     20 C         140.4519  138.3155  158.4648 C.3     1  UNL1        0.0460
     21 C         145.2030  139.2038  154.6571 C.3     1  UNL1        0.0756
     22 C         144.3262  138.4608  155.6211 C.ar    1  UNL1        0.1609
     23 N         144.0646  136.9838  155.6167 N.ar    1  UNL1       -0.2076
     24 C         143.1339  136.6745  156.7516 C.ar    1  UNL1        0.1968
     25 N         142.8203  137.9604  157.4575 N.ar    1  UNL1       -0.2323
     26 N         143.5572  139.0644  156.7588 N.ar    1  UNL1       -0.1531
     27 C         143.1049  138.8850  164.6938 C.3     1  UNL1        0.1776
     28 N         143.9468  139.9001  163.9790 N.ar    1  UNL1       -0.1467
     29 N         145.3708  140.2470  164.2984 N.ar    1  UNL1       -0.0451
     30 N         145.8165  141.3078  163.3362 N.ar    1  UNL1       -0.1123
     31 C         144.6680  141.6166  162.4220 C.ar    1  UNL1        0.1838
     32 C         144.6740  142.6193  161.3064 C.3     1  UNL1        0.0776
     33 N         143.5125  140.7465  162.8193 N.ar    1  UNL1       -0.1339
@<TRIPOS>BOND
     1    21    22    1
     2    22    23   ar
     3    23    24   ar
     4    24    25   ar
     5    25    13    1
     6    13    14    1
     7    14    15    1
     8    15    16    1
     9    16    17   am
    10    17    18    2
    11    17    11    1
    12    11    12    2
    13    12     1    1
    14     1     2   ar
    15     2     3   ar
    16     3     4   ar
    17     4     7    1
    18     7     8    1
    19     7     9    1
    20     7    10    1
    21     4     5   ar
    22     5     6   ar
    23     6    27    1
    24    27    28    1
    25    28    29   ar
    26    29    30   ar
    27    30    31   ar
    28    31    32    1
    29    31    33   ar
    30    16    19    1
    31    19    20    1
    32    25    26   ar
    33    26    22   ar
    34    20    13    1
    35     6     1   ar
    36    33    28   ar
@<TRIPOS>MOLECULE
*****
 33 36 0 0 0
SMALL
GASTEIGER

@<TRIPOS>ATOM
      1 C         141.1775  140.1381  166.3367 C.ar    1  UNL1       -0.0019
      2 C         139.9986  139.7340  167.1713 C.ar    1  UNL1       -0.0003
      3 C         139.5964  140.5650  168.3535 C.ar    1  UNL1        0.0038
      4 C         140.3732  141.8003  168.7010 C.ar    1  UNL1        0.0712
      5 C         141.5521  142.2045  167.8663 C.ar    1  UNL1        0.0016
      6 C         141.9543  141.3734  166.6841 C.ar    1  UNL1        0.0040
      7 C         139.9710  142.6314  169.8832 C.3     1  UNL1        0.4186
      8 F         139.5688  143.4625  171.0653 F       1  UNL1       -0.1659
      9 F         140.9931  143.6624  169.5061 F       1  UNL1       -0.1659
     10 F         138.9488  141.6004  170.2602 F       1  UNL1       -0.1659
     11 C         140.7242  139.2919  163.9224 C.2     1  UNL1        0.0579
     12 C         141.5797  139.3071  165.1545 C.2     1  UNL1        0.0044
     13 C         143.5618  140.2903  159.4279 C.3     1  UNL1        0.1103
     14 C         143.1596  141.1214  160.6100 C.3     1  UNL1        0.0460
     15 C         142.3478  140.5115  161.7141 C.3     1  UNL1        0.0957
     16 N         141.9382  139.0706  161.6361 N.am    1  UNL1       -0.2759
     17 C         141.1264  138.4608  162.7403 C.2     1  UNL1        0.2492
     18 O         140.7169  137.0199  162.6622 O.2     1  UNL1       -0.2699
     19 C         142.3404  138.2396  160.4540 C.3     1  UNL1        0.0957
     20 C         143.1522  138.8494  159.3498 C.3     1  UNL1        0.0460
     21 C         146.2316  140.9194  154.9160 C.3     1  UNL1        0.0756
     22 C         145.6008  141.1893  156.2498 C.ar    1  UNL1        0.1609
     23 N         145.6448  142.4879  156.9994 N.ar    1  UNL1       -0.2076
     24 C         144.8863  142.3091  158.2811 C.ar    1  UNL1        0.1968
     25 N         144.3736  140.9001  158.3237 N.ar    1  UNL1       -0.2323
     26 N         144.8151  140.2080  157.0683 N.ar    1  UNL1       -0.1531
     27 C         143.1333  141.7775  165.8495 C.3     1  UNL1        0.1776
     28 N         142.9762  142.8244  164.7867 N.ar    1  UNL1       -0.1467
     29 N         144.0667  143.3554  163.9041 N.ar    1  UNL1       -0.0451
     30 N         143.4656  144.3832  162.9918 N.ar    1  UNL1       -0.1123
     31 C         142.0035  144.4874  163.3106 C.ar    1  UNL1        0.1838
     32 C         141.0171  145.3955  162.6381 C.3     1  UNL1        0.0776
     33 N         141.7011  143.5240  164.4198 N.ar    1  UNL1       -0.1339
@<TRIPOS>BOND
     1    21    22    1
     2    22    23   ar
     3    23    24   ar
     4    24    25   ar
     5    25    13    1
     6    13    14    1
     7    14    15    1
     8    15    16    1
     9    16    17   am
    10    17    18    2
    11    17    11    1
    12    11    12    2
    13    12     1    1
    14     1     2   ar
    15     2     3   ar
    16     3     4   ar
    17     4     7    1
    18     7     8    1
    19     7     9    1
    20     7    10    1
    21     4     5   ar
    22     5     6   ar
    23     6    27    1
    24    27    28    1
    25    28    29   ar
    26    29    30   ar
    27    30    31   ar
    28    31    32    1
    29    31    33   ar
    30    16    19    1
    31    19    20    1
    32    25    26   ar
    33    26    22   ar
    34    20    13    1
    35     6     1   ar
    36    33    28   ar
@<TRIPOS>MOLECULE
*****
 33 36 0 0 0
SMALL
GASTEIGER

@<TRIPOS>ATOM
      1 C         138.3399  139.3396  162.7675 C.ar    1  UNL1       -0.0019
      2 C         138.8068  138.1249  163.5136 C.ar    1  UNL1       -0.0003
      3 C         138.8562  138.1384  165.0127 C.ar    1  UNL1        0.0038
      4 C         138.4388  139.3667  165.7658 C.ar    1  UNL1        0.0712
      5 C         137.9719  140.5814  165.0198 C.ar    1  UNL1        0.0016
      6 C         137.9225  140.5678  163.5206 C.ar    1  UNL1        0.0040
      7 C         138.4882  139.3802  167.2649 C.3     1  UNL1        0.4186
      8 F         138.5377  139.3937  168.7640 F       1  UNL1       -0.1659
      9 F         139.6222  140.3609  167.2187 F       1  UNL1       -0.1659
     10 F         137.3542  138.3995  167.3112 F       1  UNL1       -0.1659
     11 C         139.4213  139.9113  160.4754 C.2     1  UNL1        0.0579
     12 C         138.2905  139.3260  161.2685 C.2     1  UNL1        0.0044
     13 C         139.6624  143.7572  156.6806 C.3     1  UNL1        0.1103
     14 C         139.7119  143.7707  158.1797 C.3     1  UNL1        0.0460
     15 C         139.6150  142.4843  158.9449 C.3     1  UNL1        0.0957
     16 N         139.4687  141.1843  158.2110 N.am    1  UNL1       -0.2759
     17 C         139.3719  139.8978  158.9763 C.2     1  UNL1        0.2492
     18 O         139.2256  138.5978  158.2424 O.2     1  UNL1       -0.2699
     19 C         139.4193  141.1707  156.7119 C.3     1  UNL1        0.0957
     20 C         139.5161  142.4572  155.9468 C.3     1  UNL1        0.0460
     21 C         139.0595  148.8015  155.2407 C.3     1  UNL1        0.0756
     22 C         139.4822  147.3623  155.2535 C.ar    1  UNL1        0.1609
     23 N         140.3345  146.6845  154.2219 N.ar    1  UNL1       -0.2076
     24 C         140.5058  145.2515  154.6310 C.ar    1  UNL1        0.1968
     25 N         139.7593  145.0437  155.9154 N.ar    1  UNL1       -0.2323
     26 N         139.1267  146.3482  156.3001 N.ar    1  UNL1       -0.1531
     27 C         137.4556  141.7825  162.7746 C.3     1  UNL1        0.1776
     28 N         138.3187  143.0082  162.7223 N.ar    1  UNL1       -0.1467
     29 N         137.9142  144.3491  162.1851 N.ar    1  UNL1       -0.0451
     30 N         139.0833  145.2779  162.3287 N.ar    1  UNL1       -0.1123
     31 C         140.2103  144.5110  162.9547 C.ar    1  UNL1        0.1838
     32 C         141.5710  145.0520  163.2803 C.3     1  UNL1        0.0776
     33 N         139.7378  143.1083  163.1979 N.ar    1  UNL1       -0.1339
@<TRIPOS>BOND
     1    21    22    1
     2    22    23   ar
     3    23    24   ar
     4    24    25   ar
     5    25    13    1
     6    13    14    1
     7    14    15    1
     8    15    16    1
     9    16    17   am
    10    17    18    2
    11    17    11    1
    12    11    12    2
    13    12     1    1
    14     1     2   ar
    15     2     3   ar
    16     3     4   ar
    17     4     7    1
    18     7     8    1
    19     7     9    1
    20     7    10    1
    21     4     5   ar
    22     5     6   ar
    23     6    27    1
    24    27    28    1
    25    28    29   ar
    26    29    30   ar
    27    30    31   ar
    28    31    32    1
    29    31    33   ar
    30    16    19    1
    31    19    20    1
    32    25    26   ar
    33    26    22   ar
    34    20    13    1
    35     6     1   ar
    36    33    28   ar
@<TRIPOS>MOLECULE
*****
 33 36 0 0 0
SMALL
GASTEIGER

@<TRIPOS>ATOM
      1 C         138.8107  139.8568  165.3566 C.ar    1  UNL1       -0.0019
      2 C         138.0836  139.0683  166.4053 C.ar    1  UNL1       -0.0003
      3 C         138.4552  139.2210  167.8505 C.ar    1  UNL1        0.0038
      4 C         139.5540  140.1621  168.2470 C.ar    1  UNL1        0.0712
      5 C         140.2810  140.9505  167.1983 C.ar    1  UNL1        0.0016
      6 C         139.9094  140.7978  165.7531 C.ar    1  UNL1        0.0040
      7 C         139.9256  140.3148  169.6922 C.3     1  UNL1        0.4186
      8 F         140.2972  140.4674  171.1373 F       1  UNL1       -0.1659
      9 F         138.4879  140.5709  170.0348 F       1  UNL1       -0.1659
     10 F         141.3633  140.0587  169.3495 F       1  UNL1       -0.1659
     11 C         139.1167  138.6646  163.0685 C.2     1  UNL1        0.0579
     12 C         138.4391  139.7041  163.9114 C.2     1  UNL1        0.0044
     13 C         141.9364  138.6438  158.4536 C.3     1  UNL1        0.1103
     14 C         142.3080  138.7965  159.8987 C.3     1  UNL1        0.0460
     15 C         141.2442  138.7525  160.9553 C.3     1  UNL1        0.0957
     16 N         139.8088  138.5559  160.5667 N.am    1  UNL1       -0.2759
     17 C         138.7450  138.5119  161.6234 C.2     1  UNL1        0.2492
     18 O         137.3097  138.3153  161.2348 O.2     1  UNL1       -0.2699
     19 C         139.4372  138.4032  159.1215 C.3     1  UNL1        0.0957
     20 C         140.5010  138.4472  158.0650 C.3     1  UNL1        0.0460
     21 C         145.8587  140.3238  155.3432 C.3     1  UNL1        0.0756
     22 C         144.8031  139.4600  155.9672 C.ar    1  UNL1        0.1609
     23 N         144.4712  138.0508  155.5745 N.ar    1  UNL1       -0.2076
     24 C         143.3570  137.5736  156.4581 C.ar    1  UNL1        0.1968
     25 N         143.0002  138.6878  157.3969 N.ar    1  UNL1       -0.2323
     26 N         143.8939  139.8536  157.0935 N.ar    1  UNL1       -0.1531
     27 C         140.6364  141.5863  164.7044 C.3     1  UNL1        0.1776
     28 N         140.0477  142.8641  164.1841 N.ar    1  UNL1       -0.1467
     29 N         138.7321  143.4587  164.5912 N.ar    1  UNL1       -0.0451
     30 N         138.5425  144.7337  163.8242 N.ar    1  UNL1       -0.1123
     31 C         139.7409  144.9271  162.9430 C.ar    1  UNL1        0.1838
     32 C         139.9690  146.0745  162.0042 C.3     1  UNL1        0.0776
     33 N         140.6711  143.7716  163.1655 N.ar    1  UNL1       -0.1339
@<TRIPOS>BOND
     1    21    22    1
     2    22    23   ar
     3    23    24   ar
     4    24    25   ar
     5    25    13    1
     6    13    14    1
     7    14    15    1
     8    15    16    1
     9    16    17   am
    10    17    18    2
    11    17    11    1
    12    11    12    2
    13    12     1    1
    14     1     2   ar
    15     2     3   ar
    16     3     4   ar
    17     4     7    1
    18     7     8    1
    19     7     9    1
    20     7    10    1
    21     4     5   ar
    22     5     6   ar
    23     6    27    1
    24    27    28    1
    25    28    29   ar
    26    29    30   ar
    27    30    31   ar
    28    31    32    1
    29    31    33   ar
    30    16    19    1
    31    19    20    1
    32    25    26   ar
    33    26    22   ar
    34    20    13    1
    35     6     1   ar
    36    33    28   ar
@<TRIPOS>MOLECULE
*****
 33 36 0 0 0
SMALL
GASTEIGER

@<TRIPOS>ATOM
      1 C         139.7498  140.9240  166.0494 C.ar    1  UNL1       -0.0019
      2 C         139.4109  139.8940  167.0859 C.ar    1  UNL1       -0.0003
      3 C         139.6431  140.1870  168.5385 C.ar    1  UNL1        0.0038
      4 C         140.2141  141.5102  168.9548 C.ar    1  UNL1        0.0712
      5 C         140.5529  142.5403  167.9184 C.ar    1  UNL1        0.0016
      6 C         140.3208  142.2472  166.4657 C.ar    1  UNL1        0.0040
      7 C         140.4463  141.8032  170.4074 C.3     1  UNL1        0.4186
      8 F         140.6784  142.0963  171.8600 F       1  UNL1       -0.1659
      9 F         141.7500  141.0640  170.3482 F       1  UNL1       -0.1659
     10 F         139.1425  142.5425  170.4666 F       1  UNL1       -0.1659
     11 C         138.4058  141.3188  163.8613 C.2     1  UNL1        0.0579
     12 C         139.5176  140.6310  164.5968 C.2     1  UNL1        0.0044
     13 C         139.8709  143.7593  159.2627 C.3     1  UNL1        0.1103
     14 C         140.1030  144.0523  160.7153 C.3     1  UNL1        0.0460
     15 C         139.5373  143.1412  161.7639 C.3     1  UNL1        0.0957
     16 N         138.7394  141.9369  161.3599 N.am    1  UNL1       -0.2759
     17 C         138.1737  141.0257  162.4086 C.2     1  UNL1        0.2492
     18 O         137.3758  139.8215  162.0046 O.2     1  UNL1       -0.2699
     19 C         138.5073  141.6439  159.9073 C.3     1  UNL1        0.0957
     20 C         139.0730  142.5551  158.8587 C.3     1  UNL1        0.0460
     21 C         140.3469  146.7627  154.9459 C.3     1  UNL1        0.0756
     22 C         140.6555  146.0510  156.2298 C.ar    1  UNL1        0.1609
     23 N         141.9591  146.0943  156.9707 N.ar    1  UNL1       -0.2076
     24 C         141.8238  145.2411  158.1969 C.ar    1  UNL1        0.1968
     25 N         140.4366  144.6705  158.2139 N.ar    1  UNL1       -0.2323
     26 N         139.7146  145.1710  156.9982 N.ar    1  UNL1       -0.1531
     27 C         140.6596  143.2772  165.4292 C.3     1  UNL1        0.1776
     28 N         142.0371  143.3203  164.8370 N.ar    1  UNL1       -0.1467
     29 N         142.6615  144.4936  164.1416 N.ar    1  UNL1       -0.0451
     30 N         144.0423  144.0962  163.7109 N.ar    1  UNL1       -0.1123
     31 C         144.2713  142.6773  164.1402 C.ar    1  UNL1        0.1838
     32 C         145.5203  141.8782  163.9134 C.3     1  UNL1        0.0776
     33 N         143.0320  142.1978  164.8361 N.ar    1  UNL1       -0.1339
@<TRIPOS>BOND
     1    21    22    1
     2    22    23   ar
     3    23    24   ar
     4    24    25   ar
     5    25    13    1
     6    13    14    1
     7    14    15    1
     8    15    16    1
     9    16    17   am
    10    17    18    2
    11    17    11    1
    12    11    12    2
    13    12     1    1
    14     1     2   ar
    15     2     3   ar
    16     3     4   ar
    17     4     7    1
    18     7     8    1
    19     7     9    1
    20     7    10    1
    21     4     5   ar
    22     5     6   ar
    23     6    27    1
    24    27    28    1
    25    28    29   ar
    26    29    30   ar
    27    30    31   ar
    28    31    32    1
    29    31    33   ar
    30    16    19    1
    31    19    20    1
    32    25    26   ar
    33    26    22   ar
    34    20    13    1
    35     6     1   ar
    36    33    28   ar
