@<TRIPOS>MOLECULE
*****
 36 40 0 0 0
SMALL
GASTEIGER

@<TRIPOS>ATOM
      1 C         140.6334  143.4448  162.1692 C.2     1  UNL1        0.4243
      2 N         141.6045  142.4250  162.6857 N.2     1  UNL1        0.0275
      3 C         141.6674  142.1255  164.1542 C.2     1  UNL1        0.3996
      4 N         142.5158  141.1786  164.9500 N.2     1  UNL1        0.0831
      5 N         142.1320  141.3137  166.3937 N.2     1  UNL1       -0.0309
      6 C         141.0463  142.3442  166.4901 C.2     1  UNL1        0.1568
      7 C         140.7592  142.8459  165.1061 C.3     1  UNL1        0.2565
      8 C         139.7880  143.8658  164.5895 C.2     1  UNL1        0.3060
      9 O         138.8798  144.5861  165.5414 O.2     1  UNL1       -0.2554
     10 N         139.7251  144.1652  163.1211 N.am    1  UNL1       -0.1358
     11 C         138.7539  145.1850  162.6045 C.3     1  UNL1        0.2167
     12 C         141.5113  146.1226  154.4835 C.3     1  UNL1        0.0335
     13 C         140.9059  145.2987  155.5810 C.3     1  UNL1        0.1294
     14 O         139.7892  144.3090  155.4270 O.3     1  UNL1       -0.3548
     15 C         139.5041  143.7184  156.7761 C.3     1  UNL1        0.1435
     16 C         140.4445  144.3430  157.7638 C.3     1  UNL1        0.0490
     17 C         139.5089  143.3363  158.3647 C.3     1  UNL1        0.0444
     18 C         139.5719  143.0369  159.8331 C.3     1  UNL1        0.1682
     19 N         140.5704  143.7442  160.7007 N.pl3   1  UNL1       -0.1900
     20 C         141.5060  144.7510  160.0997 C.3     1  UNL1        0.1682
     21 C         141.4430  145.0504  158.6313 C.3     1  UNL1        0.0444
     22 C         141.3109  145.3197  157.0251 C.3     1  UNL1        0.0808
     23 N         142.3923  146.1683  157.6253 N.3     1  UNL1       -0.3202
     24 H         142.4546  145.9820  158.6262 H       1  UNL1        0.1189
     25 H         142.1739  147.1534  157.4757 H       1  UNL1        0.1189
     26 S         140.3670  142.7939  167.7497 S.3     1  UNL1       -0.0665
     27 C         140.7749  142.2120  169.0707 C.ar    1  UNL1        0.0455
     28 C         141.8658  142.8598  169.8708 C.ar    1  UNL1        0.0281
     29 C         142.2737  142.2781  171.1918 C.ar    1  UNL1        0.1009
     30 N         141.5906  141.0484  171.7127 N.ar    1  UNL1       -0.2287
     31 C         140.4997  140.4006  170.9126 C.ar    1  UNL1        0.1365
     32 N         139.8166  139.1709  171.4336 N.pl3   1  UNL1       -0.3419
     33 C         140.0918  140.9824  169.5916 C.ar    1  UNL1        0.0947
     34 CL        139.0008  140.3346  168.7915 Cl      1  UNL1       -0.0788
     35 H         140.0843  138.7891  172.3006 H       1  UNL1        0.1437
     36 H         139.1006  138.7457  170.9085 H       1  UNL1        0.1437
@<TRIPOS>BOND
     1    13    12    1
     2    13    14    1
     3    14    15    1
     4    15    16    1
     5    16    17    1
     6    17    18    1
     7    18    19    1
     8    19     1    1
     9     1     2    2
    10     2     3    1
    11     3     4    2
    12     4     5    1
    13     5     6    2
    14     6    26    1
    15    26    27    1
    16    27    28   ar
    17    28    29   ar
    18    29    30   ar
    19    30    31   ar
    20    31    32    1
    21    31    33   ar
    22    33    34    1
    23     6     7    1
    24     7     8    1
    25     8     9    2
    26     8    10   am
    27    10    11    1
    28    19    20    1
    29    20    21    1
    30    16    22    1
    31    22    23    1
    32    22    13    1
    33    21    16    1
    34    10     1    1
    35     7     3    1
    36    33    27   ar
    37    32    35    1
    38    32    36    1
    39    23    24    1
    40    23    25    1
@<TRIPOS>MOLECULE
*****
 36 40 0 0 0
SMALL
GASTEIGER

@<TRIPOS>ATOM
      1 C         139.3347  140.6101  162.3531 C.2     1  UNL1        0.4243
      2 N         138.3052  140.0030  163.2595 N.2     1  UNL1        0.0275
      3 C         138.6203  139.7799  164.7090 C.2     1  UNL1        0.3996
      4 N         137.8126  139.2054  165.8348 N.2     1  UNL1        0.0831
      5 N         138.6579  139.2343  167.0736 N.2     1  UNL1       -0.0309
      6 C         139.9880  139.8267  166.7134 C.2     1  UNL1        0.1568
      7 C         139.9648  140.1639  165.2520 C.3     1  UNL1        0.2565
      8 C         140.9942  140.7711  164.3455 C.2     1  UNL1        0.3060
      9 O         142.3387  141.1551  164.8885 O.2     1  UNL1       -0.2554
     10 N         140.6792  140.9941  162.8961 N.am    1  UNL1       -0.1358
     11 C         141.7086  141.6013  161.9896 C.3     1  UNL1        0.2167
     12 C         138.0898  140.2677  154.2695 C.3     1  UNL1        0.0335
     13 C         138.1069  140.9170  155.6215 C.3     1  UNL1        0.1294
     14 O         137.7025  142.3289  155.9267 O.3     1  UNL1       -0.3548
     15 C         137.8771  142.5529  157.3996 C.3     1  UNL1        0.1435
     16 C         138.3895  141.2796  158.0047 C.3     1  UNL1        0.0490
     17 C         138.1968  142.3906  158.9937 C.3     1  UNL1        0.0444
     18 C         138.5118  142.1675  160.4432 C.3     1  UNL1        0.1682
     19 N         139.0196  140.8332  160.9035 N.pl3   1  UNL1       -0.1900
     20 C         139.2124  139.7222  159.9145 C.3     1  UNL1        0.1682
     21 C         138.8973  139.9453  158.4651 C.3     1  UNL1        0.0444
     22 C         138.5315  140.2685  156.9057 C.3     1  UNL1        0.0808
     23 N         139.0135  138.8569  157.0633 N.3     1  UNL1       -0.3202
     24 H         139.2348  138.6806  158.0433 H       1  UNL1        0.1189
     25 H         139.8495  138.7176  156.4957 H       1  UNL1        0.1189
     26 S         141.1392  140.0438  167.6502 S.3     1  UNL1       -0.0665
     27 C         140.9266  140.7733  168.9435 C.ar    1  UNL1        0.0455
     28 C         141.0282  140.0360  170.2458 C.ar    1  UNL1        0.0281
     29 C         140.8155  140.7654  171.5392 C.ar    1  UNL1        0.1009
     30 N         140.5013  142.2321  171.5301 N.ar    1  UNL1       -0.2287
     31 C         140.3998  142.9693  170.2278 C.ar    1  UNL1        0.1365
     32 N         140.0855  144.4361  170.2188 N.pl3   1  UNL1       -0.3419
     33 C         140.6124  142.2400  168.9344 C.ar    1  UNL1        0.0947
     34 CL        140.5108  142.9772  167.6321 Cl      1  UNL1       -0.0788
     35 H         139.9460  144.9148  171.0677 H       1  UNL1        0.1437
     36 H         140.0188  144.9200  169.3641 H       1  UNL1        0.1437
@<TRIPOS>BOND
     1    13    12    1
     2    13    14    1
     3    14    15    1
     4    15    16    1
     5    16    17    1
     6    17    18    1
     7    18    19    1
     8    19     1    1
     9     1     2    2
    10     2     3    1
    11     3     4    2
    12     4     5    1
    13     5     6    2
    14     6    26    1
    15    26    27    1
    16    27    28   ar
    17    28    29   ar
    18    29    30   ar
    19    30    31   ar
    20    31    32    1
    21    31    33   ar
    22    33    34    1
    23     6     7    1
    24     7     8    1
    25     8     9    2
    26     8    10   am
    27    10    11    1
    28    19    20    1
    29    20    21    1
    30    16    22    1
    31    22    23    1
    32    22    13    1
    33    21    16    1
    34    10     1    1
    35     7     3    1
    36    33    27   ar
    37    32    35    1
    38    32    36    1
    39    23    24    1
    40    23    25    1
@<TRIPOS>MOLECULE
*****
 36 40 0 0 0
SMALL
GASTEIGER

@<TRIPOS>ATOM
      1 C         142.8308  140.6184  162.4612 C.2     1  UNL1        0.4243
      2 N         143.6694  139.8816  163.4631 N.2     1  UNL1        0.0275
      3 C         143.1498  139.6510  164.8513 C.2     1  UNL1        0.3996
      4 N         143.7447  138.9635  166.0443 N.2     1  UNL1        0.0831
      5 N         142.7542  139.0447  167.1678 N.2     1  UNL1       -0.0309
      6 C         141.5472  139.7826  166.6691 C.2     1  UNL1        0.1568
      7 C         141.7917  140.1573  165.2375 C.3     1  UNL1        0.2565
      8 C         140.9531  140.8941  164.2355 C.2     1  UNL1        0.3060
      9 O         139.5949  141.4003  164.6216 O.2     1  UNL1       -0.2554
     10 N         141.4727  141.1246  162.8474 N.am    1  UNL1       -0.1358
     11 C         140.6341  141.8615  161.8454 C.3     1  UNL1        0.2167
     12 C         145.0524  140.3861  154.5858 C.3     1  UNL1        0.0335
     13 C         144.9330  140.9914  155.9529 C.3     1  UNL1        0.1294
     14 O         145.4451  142.3388  156.3684 O.3     1  UNL1       -0.3548
     15 C         145.1092  142.5358  157.8170 C.3     1  UNL1        0.1435
     16 C         144.3895  141.3102  158.2968 C.3     1  UNL1        0.0490
     17 C         144.5732  142.3617  159.3507 C.3     1  UNL1        0.0444
     18 C         144.0536  142.1311  160.7388 C.3     1  UNL1        0.1682
     19 N         143.3504  140.8490  161.0730 N.pl3   1  UNL1       -0.1900
     20 C         143.1667  139.7975  160.0192 C.3     1  UNL1        0.1682
     21 C         143.6863  140.0282  158.6311 C.3     1  UNL1        0.0444
     22 C         144.2807  140.3558  157.1447 C.3     1  UNL1        0.0808
     23 N         143.6331  139.0032  157.1786 N.3     1  UNL1       -0.3202
     24 H         143.2710  138.8230  158.1150 H       1  UNL1        0.1189
     25 H         144.3217  138.2905  156.9373 H       1  UNL1        0.1189
     26 S         140.3124  140.0914  167.4628 S.3     1  UNL1       -0.0665
     27 C         140.4256  140.7953  168.7826 C.ar    1  UNL1        0.0455
     28 C         140.6284  140.0031  170.0401 C.ar    1  UNL1        0.0281
     29 C         140.7417  140.7069  171.3598 C.ar    1  UNL1        0.1009
     30 N         140.6520  142.2029  171.4221 N.ar    1  UNL1       -0.2287
     31 C         140.4492  142.9951  170.1645 C.ar    1  UNL1        0.1365
     32 N         140.3595  144.4912  170.2269 N.pl3   1  UNL1       -0.3419
     33 C         140.3360  142.2913  168.8448 C.ar    1  UNL1        0.0947
     34 CL        140.1331  143.0835  167.5873 Cl      1  UNL1       -0.0788
     35 H         140.4338  144.9531  171.0931 H       1  UNL1        0.1437
     36 H         140.2264  145.0111  169.4015 H       1  UNL1        0.1437
@<TRIPOS>BOND
     1    13    12    1
     2    13    14    1
     3    14    15    1
     4    15    16    1
     5    16    17    1
     6    17    18    1
     7    18    19    1
     8    19     1    1
     9     1     2    2
    10     2     3    1
    11     3     4    2
    12     4     5    1
    13     5     6    2
    14     6    26    1
    15    26    27    1
    16    27    28   ar
    17    28    29   ar
    18    29    30   ar
    19    30    31   ar
    20    31    32    1
    21    31    33   ar
    22    33    34    1
    23     6     7    1
    24     7     8    1
    25     8     9    2
    26     8    10   am
    27    10    11    1
    28    19    20    1
    29    20    21    1
    30    16    22    1
    31    22    23    1
    32    22    13    1
    33    21    16    1
    34    10     1    1
    35     7     3    1
    36    33    27   ar
    37    32    35    1
    38    32    36    1
    39    23    24    1
    40    23    25    1
@<TRIPOS>MOLECULE
*****
 36 40 0 0 0
SMALL
GASTEIGER

@<TRIPOS>ATOM
      1 C         142.9978  142.0810  161.3500 C.2     1  UNL1        0.4243
      2 N         141.8835  143.0772  161.4764 N.2     1  UNL1        0.0275
      3 C         141.2573  143.3363  162.8147 C.2     1  UNL1        0.3996
      4 N         140.1509  144.2533  163.2444 N.2     1  UNL1        0.0831
      5 N         139.9551  144.0829  164.7218 N.2     1  UNL1       -0.0309
      6 C         140.9406  143.0605  165.2050 C.2     1  UNL1        0.1568
      7 C         141.7454  142.5991  164.0264 C.3     1  UNL1        0.2565
      8 C         142.8597  141.6028  163.8999 C.2     1  UNL1        0.3060
      9 O         143.3477  140.8656  165.1117 O.2     1  UNL1       -0.2554
     10 N         143.4858  141.3438  162.5618 N.am    1  UNL1       -0.1358
     11 C         144.6001  140.3476  162.4353 C.3     1  UNL1        0.2167
     12 C         147.4149  141.8997  154.4603 C.3     1  UNL1        0.0335
     13 C         146.3311  141.4587  155.3987 C.3     1  UNL1        0.1294
     14 O         145.3489  140.3517  155.1534 O.3     1  UNL1       -0.3548
     15 C         144.4498  140.2561  156.3504 C.3     1  UNL1        0.1435
     16 C         144.8763  141.3039  157.3354 C.3     1  UNL1        0.0490
     17 C         143.7127  140.4748  157.7921 C.3     1  UNL1        0.0444
     18 C         143.0866  140.7338  159.1302 C.3     1  UNL1        0.1682
     19 N         143.6240  141.8220  160.0118 N.pl3   1  UNL1       -0.1900
     20 C         144.7876  142.6511  159.5551 C.3     1  UNL1        0.1682
     21 C         145.4138  142.3920  158.2169 C.3     1  UNL1        0.0444
     22 C         146.0390  142.0471  156.7472 C.3     1  UNL1        0.0808
     23 N         146.7795  143.1799  157.3941 N.3     1  UNL1       -0.3202
     24 H         146.3709  143.3753  158.3080 H       1  UNL1        0.1189
     25 H         146.7108  144.0107  156.8063 H       1  UNL1        0.1189
     26 S         141.0942  142.5833  166.6189 S.3     1  UNL1       -0.0665
     27 C         140.2347  141.4657  167.1309 C.ar    1  UNL1        0.0455
     28 C         139.5824  140.5193  166.1672 C.ar    1  UNL1        0.0281
     29 C         138.7229  139.4017  166.6791 C.ar    1  UNL1        0.1009
     30 N         138.5157  139.2305  168.1549 N.ar    1  UNL1       -0.2287
     31 C         139.1680  140.1770  169.1186 C.ar    1  UNL1        0.1365
     32 N         138.9607  140.0057  170.5943 N.pl3   1  UNL1       -0.3419
     33 C         140.0275  141.2946  168.6066 C.ar    1  UNL1        0.0947
     34 CL        140.6798  142.2410  169.5703 Cl      1  UNL1       -0.0788
     35 H         138.3966  139.2722  170.9303 H       1  UNL1        0.1437
     36 H         139.3888  140.6269  171.2269 H       1  UNL1        0.1437
@<TRIPOS>BOND
     1    13    12    1
     2    13    14    1
     3    14    15    1
     4    15    16    1
     5    16    17    1
     6    17    18    1
     7    18    19    1
     8    19     1    1
     9     1     2    2
    10     2     3    1
    11     3     4    2
    12     4     5    1
    13     5     6    2
    14     6    26    1
    15    26    27    1
    16    27    28   ar
    17    28    29   ar
    18    29    30   ar
    19    30    31   ar
    20    31    32    1
    21    31    33   ar
    22    33    34    1
    23     6     7    1
    24     7     8    1
    25     8     9    2
    26     8    10   am
    27    10    11    1
    28    19    20    1
    29    20    21    1
    30    16    22    1
    31    22    23    1
    32    22    13    1
    33    21    16    1
    34    10     1    1
    35     7     3    1
    36    33    27   ar
    37    32    35    1
    38    32    36    1
    39    23    24    1
    40    23    25    1
@<TRIPOS>MOLECULE
*****
 36 40 0 0 0
SMALL
GASTEIGER

@<TRIPOS>ATOM
      1 C         141.0530  141.7494  162.8091 C.2     1  UNL1        0.4243
      2 N         142.2230  140.8197  162.9374 N.2     1  UNL1        0.0275
      3 C         142.5099  140.1517  164.2495 C.2     1  UNL1        0.3996
      4 N         143.5828  139.1935  164.6746 N.2     1  UNL1        0.0831
      5 N         143.3627  138.8632  166.1211 N.2     1  UNL1       -0.0309
      6 C         142.1537  139.6172  166.5900 C.2     1  UNL1        0.1568
      7 C         141.6267  140.4135  165.4333 C.3     1  UNL1        0.2565
      8 C         140.4566  141.3433  165.3050 C.2     1  UNL1        0.3060
      9 O         139.5734  141.6052  166.4888 O.2     1  UNL1       -0.2554
     10 N         140.1698  142.0112  163.9929 N.am    1  UNL1       -0.1358
     11 C         138.9997  142.9411  163.8646 C.3     1  UNL1        0.2167
     12 C         140.5926  146.4951  156.1549 C.3     1  UNL1        0.0335
     13 C         140.2444  145.3206  157.0204 C.3     1  UNL1        0.1294
     14 O         139.2571  144.2416  156.6870 O.3     1  UNL1       -0.3548
     15 C         139.2249  143.2729  157.8320 C.3     1  UNL1        0.1435
     16 C         140.1923  143.7532  158.8729 C.3     1  UNL1        0.0490
     17 C         139.4807  142.4849  159.2402 C.3     1  UNL1        0.0444
     18 C         139.7676  141.8170  160.5523 C.3     1  UNL1        0.1682
     19 N         140.7661  142.4174  161.4970 N.pl3   1  UNL1       -0.1900
     20 C         141.4777  143.6857  161.1297 C.3     1  UNL1        0.1682
     21 C         141.1907  144.3536  159.8176 C.3     1  UNL1        0.0444
     22 C         140.8224  145.0187  158.3713 C.3     1  UNL1        0.0808
     23 N         141.8500  145.8384  159.0938 N.3     1  UNL1       -0.3202
     24 H         142.0622  145.4032  159.9916 H       1  UNL1        0.1189
     25 H         141.4868  146.7788  159.2493 H       1  UNL1        0.1189
     26 S         141.5737  139.5811  167.9728 S.3     1  UNL1       -0.0665
     27 C         141.7414  140.7581  168.8875 C.ar    1  UNL1        0.0455
     28 C         143.0637  141.4615  168.9699 C.ar    1  UNL1        0.0281
     29 C         143.2314  142.6385  169.8845 C.ar    1  UNL1        0.1009
     30 N         142.0768  143.1120  170.7168 N.ar    1  UNL1       -0.2287
     31 C         140.7546  142.4086  170.6344 C.ar    1  UNL1        0.1365
     32 N         139.6000  142.8822  171.4667 N.pl3   1  UNL1       -0.3419
     33 C         140.5868  141.2316  169.7198 C.ar    1  UNL1        0.0947
     34 CL        139.2645  140.5282  169.6374 Cl      1  UNL1       -0.0788
     35 H         139.7101  143.6547  172.0670 H       1  UNL1        0.1437
     36 H         138.7321  142.4206  171.4127 H       1  UNL1        0.1437
@<TRIPOS>BOND
     1    13    12    1
     2    13    14    1
     3    14    15    1
     4    15    16    1
     5    16    17    1
     6    17    18    1
     7    18    19    1
     8    19     1    1
     9     1     2    2
    10     2     3    1
    11     3     4    2
    12     4     5    1
    13     5     6    2
    14     6    26    1
    15    26    27    1
    16    27    28   ar
    17    28    29   ar
    18    29    30   ar
    19    30    31   ar
    20    31    32    1
    21    31    33   ar
    22    33    34    1
    23     6     7    1
    24     7     8    1
    25     8     9    2
    26     8    10   am
    27    10    11    1
    28    19    20    1
    29    20    21    1
    30    16    22    1
    31    22    23    1
    32    22    13    1
    33    21    16    1
    34    10     1    1
    35     7     3    1
    36    33    27   ar
    37    32    35    1
    38    32    36    1
    39    23    24    1
    40    23    25    1
@<TRIPOS>MOLECULE
*****
 36 40 0 0 0
SMALL
GASTEIGER

@<TRIPOS>ATOM
      1 C         142.1911  143.6489  161.7845 C.2     1  UNL1        0.4243
      2 N         143.2618  144.2816  162.6230 N.2     1  UNL1        0.0275
      3 C         143.5204  143.7801  164.0129 C.2     1  UNL1        0.3996
      4 N         144.5012  144.2027  165.0661 N.2     1  UNL1        0.0831
      5 N         144.2954  143.3296  166.2683 N.2     1  UNL1       -0.0309
      6 C         143.1873  142.3674  165.9580 C.2     1  UNL1        0.1568
      7 C         142.7083  142.6458  164.5641 C.3     1  UNL1        0.2565
      8 C         141.6376  142.0130  163.7255 C.2     1  UNL1        0.3060
      9 O         140.8256  140.8787  164.2767 O.2     1  UNL1       -0.2554
     10 N         141.3791  142.5145  162.3357 N.am    1  UNL1       -0.1358
     11 C         140.3083  141.8818  161.4971 C.3     1  UNL1        0.2167
     12 C         142.0085  145.3818  153.7861 C.3     1  UNL1        0.0335
     13 C         141.5690  145.4889  155.2162 C.3     1  UNL1        0.1294
     14 O         140.4653  146.3615  155.7364 O.3     1  UNL1       -0.3548
     15 C         140.3703  146.1541  157.2190 C.3     1  UNL1        0.1435
     16 C         141.4152  145.1534  157.6151 C.3     1  UNL1        0.0490
     17 C         140.5887  145.6583  158.7605 C.3     1  UNL1        0.0444
     18 C         140.8474  145.1568  160.1503 C.3     1  UNL1        0.1682
     19 N         141.9325  144.1504  160.3946 N.pl3   1  UNL1       -0.1900
     20 C         142.7590  143.6455  159.2492 C.3     1  UNL1        0.1682
     21 C         142.5003  144.1470  157.8594 C.3     1  UNL1        0.0444
     22 C         142.1560  144.7423  156.3772 C.3     1  UNL1        0.0808
     23 N         143.2856  143.7576  156.3119 N.3     1  UNL1       -0.3202
     24 H         143.4806  143.4014  157.2476 H       1  UNL1        0.1189
     25 H         144.1175  144.2183  155.9433 H       1  UNL1        0.1189
     26 S         142.6521  141.3120  166.8799 S.3     1  UNL1       -0.0665
     27 C         142.1599  141.6886  168.2458 C.ar    1  UNL1        0.0455
     28 C         143.0610  142.4273  169.1905 C.ar    1  UNL1        0.0281
     29 C         142.5689  142.8040  170.5564 C.ar    1  UNL1        0.1009
     30 N         141.1755  142.4420  170.9777 N.ar    1  UNL1       -0.2287
     31 C         140.2744  141.7033  170.0331 C.ar    1  UNL1        0.1365
     32 N         138.8810  141.3414  170.4545 N.pl3   1  UNL1       -0.3419
     33 C         140.7665  141.3266  168.6672 C.ar    1  UNL1        0.0947
     34 CL        139.8654  140.5880  167.7225 Cl      1  UNL1       -0.0788
     35 H         138.5580  141.5886  171.3510 H       1  UNL1        0.1437
     36 H         138.2895  140.8566  169.8346 H       1  UNL1        0.1437
@<TRIPOS>BOND
     1    13    12    1
     2    13    14    1
     3    14    15    1
     4    15    16    1
     5    16    17    1
     6    17    18    1
     7    18    19    1
     8    19     1    1
     9     1     2    2
    10     2     3    1
    11     3     4    2
    12     4     5    1
    13     5     6    2
    14     6    26    1
    15    26    27    1
    16    27    28   ar
    17    28    29   ar
    18    29    30   ar
    19    30    31   ar
    20    31    32    1
    21    31    33   ar
    22    33    34    1
    23     6     7    1
    24     7     8    1
    25     8     9    2
    26     8    10   am
    27    10    11    1
    28    19    20    1
    29    20    21    1
    30    16    22    1
    31    22    23    1
    32    22    13    1
    33    21    16    1
    34    10     1    1
    35     7     3    1
    36    33    27   ar
    37    32    35    1
    38    32    36    1
    39    23    24    1
    40    23    25    1
@<TRIPOS>MOLECULE
*****
 36 40 0 0 0
SMALL
GASTEIGER

@<TRIPOS>ATOM
      1 C         141.9222  143.6604  161.2294 C.2     1  UNL1        0.4243
      2 N         143.0315  144.1403  162.1177 N.2     1  UNL1        0.0275
      3 C         143.1198  143.6569  163.5350 C.2     1  UNL1        0.3996
      4 N         144.0928  143.9527  164.6375 N.2     1  UNL1        0.0831
      5 N         143.6733  143.1722  165.8478 N.2     1  UNL1       -0.0309
      6 C         142.4410  142.3940  165.4932 C.2     1  UNL1        0.1568
      7 C         142.0989  142.6936  164.0639 C.3     1  UNL1        0.2565
      8 C         140.9897  142.2136  163.1754 C.2     1  UNL1        0.3060
      9 O         139.9688  141.2502  163.7043 O.2     1  UNL1       -0.2554
     10 N         140.9013  142.6970  161.7582 N.am    1  UNL1       -0.1358
     11 C         139.7921  142.2170  160.8698 C.3     1  UNL1        0.2167
     12 C         140.2867  147.3043  154.0839 C.3     1  UNL1        0.0335
     13 C         140.9866  146.3411  154.9961 C.3     1  UNL1        0.1294
     14 O         142.0559  145.3675  154.5974 O.3     1  UNL1       -0.3548
     15 C         142.4704  144.6070  155.8221 C.3     1  UNL1        0.1435
     16 C         141.6572  145.1104  156.9777 C.3     1  UNL1        0.0490
     17 C         142.6274  144.0257  157.3410 C.3     1  UNL1        0.0444
     18 C         142.7157  143.5424  158.7582 C.3     1  UNL1        0.1682
     19 N         141.8339  144.1438  159.8121 N.pl3   1  UNL1       -0.1900
     20 C         140.8637  145.2285  159.4488 C.3     1  UNL1        0.1682
     21 C         140.7754  145.7118  158.0316 C.3     1  UNL1        0.0444
     22 C         140.7402  146.1822  156.4671 C.3     1  UNL1        0.0808
     23 N         139.7506  146.9586  157.2843 N.3     1  UNL1       -0.3202
     24 H         139.7920  146.6470  158.2546 H       1  UNL1        0.1189
     25 H         138.8114  146.8045  156.9175 H       1  UNL1        0.1189
     26 S         141.6838  141.4772  166.4076 S.3     1  UNL1       -0.0665
     27 C         141.4647  141.8606  167.8411 C.ar    1  UNL1        0.0455
     28 C         140.6924  143.1022  168.1757 C.ar    1  UNL1        0.0281
     29 C         140.4732  143.4857  169.6092 C.ar    1  UNL1        0.1009
     30 N         141.0264  142.6275  170.7080 N.ar    1  UNL1       -0.2287
     31 C         141.7987  141.3859  170.3734 C.ar    1  UNL1        0.1365
     32 N         142.3518  140.5277  171.4724 N.pl3   1  UNL1       -0.3419
     33 C         142.0178  141.0024  168.9399 C.ar    1  UNL1        0.0947
     34 CL        142.7901  139.7608  168.6053 Cl      1  UNL1       -0.0788
     35 H         142.2080  140.7794  172.4132 H       1  UNL1        0.1437
     36 H         142.8587  139.7128  171.2528 H       1  UNL1        0.1437
@<TRIPOS>BOND
     1    13    12    1
     2    13    14    1
     3    14    15    1
     4    15    16    1
     5    16    17    1
     6    17    18    1
     7    18    19    1
     8    19     1    1
     9     1     2    2
    10     2     3    1
    11     3     4    2
    12     4     5    1
    13     5     6    2
    14     6    26    1
    15    26    27    1
    16    27    28   ar
    17    28    29   ar
    18    29    30   ar
    19    30    31   ar
    20    31    32    1
    21    31    33   ar
    22    33    34    1
    23     6     7    1
    24     7     8    1
    25     8     9    2
    26     8    10   am
    27    10    11    1
    28    19    20    1
    29    20    21    1
    30    16    22    1
    31    22    23    1
    32    22    13    1
    33    21    16    1
    34    10     1    1
    35     7     3    1
    36    33    27   ar
    37    32    35    1
    38    32    36    1
    39    23    24    1
    40    23    25    1
@<TRIPOS>MOLECULE
*****
 36 40 0 0 0
SMALL
GASTEIGER

@<TRIPOS>ATOM
      1 C         140.9869  142.7831  162.7520 C.2     1  UNL1        0.4243
      2 N         142.2271  142.3366  162.0361 N.2     1  UNL1        0.0275
      3 C         142.5880  142.9423  160.7121 C.2     1  UNL1        0.3996
      4 N         143.7388  142.7045  159.7799 N.2     1  UNL1        0.0831
      5 N         143.5708  143.6098  158.5958 N.2     1  UNL1       -0.0309
      6 C         142.3161  144.4070  158.7961 C.2     1  UNL1        0.1568
      7 C         141.7087  143.9944  160.1040 C.3     1  UNL1        0.2565
      8 C         140.4684  144.4409  160.8200 C.2     1  UNL1        0.3060
      9 O         139.5891  145.4931  160.2120 O.2     1  UNL1       -0.2554
     10 N         140.1076  143.8352  162.1440 N.am    1  UNL1       -0.1358
     11 C         138.8674  144.2817  162.8600 C.3     1  UNL1        0.2167
     12 C         139.9368  140.6868  170.5951 C.3     1  UNL1        0.0335
     13 C         139.7532  140.5592  169.1119 C.3     1  UNL1        0.1294
     14 O         138.9442  139.5086  168.4107 O.3     1  UNL1       -0.3548
     15 C         139.0375  139.7600  166.9348 C.3     1  UNL1        0.1435
     16 C         139.9041  140.9660  166.7239 C.3     1  UNL1        0.0490
     17 C         139.3840  140.3589  165.4547 C.3     1  UNL1        0.0444
     18 C         139.7449  140.9646  164.1308 C.3     1  UNL1        0.1682
     19 N         140.6260  142.1774  164.0760 N.pl3   1  UNL1       -0.1900
     20 C         141.1461  142.7844  165.3452 C.3     1  UNL1        0.1682
     21 C         140.7852  142.1787  166.6691 C.3     1  UNL1        0.0444
     22 C         140.3465  141.4599  168.0694 C.3     1  UNL1        0.0808
     23 N         141.2274  142.6463  168.3271 N.3     1  UNL1       -0.3202
     24 H         141.4869  143.0764  167.4393 H       1  UNL1        0.1189
     25 H         142.0693  142.3445  168.8176 H       1  UNL1        0.1189
     26 S         141.7655  145.4361  157.8538 S.3     1  UNL1       -0.0665
     27 C         140.9055  145.0128  156.7001 C.ar    1  UNL1        0.0455
     28 C         141.2179  143.7485  155.9560 C.ar    1  UNL1        0.0281
     29 C         140.3580  143.3251  154.8022 C.ar    1  UNL1        0.1009
     30 N         139.1855  144.1663  154.3925 N.ar    1  UNL1       -0.2287
     31 C         138.8731  145.4307  155.1366 C.ar    1  UNL1        0.1365
     32 N         137.7006  146.2718  154.7268 N.pl3   1  UNL1       -0.3419
     33 C         139.7330  145.8540  156.2904 C.ar    1  UNL1        0.0947
     34 CL        139.4205  147.1184  157.0345 Cl      1  UNL1       -0.0788
     35 H         137.1361  145.9939  153.9696 H       1  UNL1        0.1437
     36 H         137.4954  147.1016  155.2152 H       1  UNL1        0.1437
@<TRIPOS>BOND
     1    13    12    1
     2    13    14    1
     3    14    15    1
     4    15    16    1
     5    16    17    1
     6    17    18    1
     7    18    19    1
     8    19     1    1
     9     1     2    2
    10     2     3    1
    11     3     4    2
    12     4     5    1
    13     5     6    2
    14     6    26    1
    15    26    27    1
    16    27    28   ar
    17    28    29   ar
    18    29    30   ar
    19    30    31   ar
    20    31    32    1
    21    31    33   ar
    22    33    34    1
    23     6     7    1
    24     7     8    1
    25     8     9    2
    26     8    10   am
    27    10    11    1
    28    19    20    1
    29    20    21    1
    30    16    22    1
    31    22    23    1
    32    22    13    1
    33    21    16    1
    34    10     1    1
    35     7     3    1
    36    33    27   ar
    37    32    35    1
    38    32    36    1
    39    23    24    1
    40    23    25    1
@<TRIPOS>MOLECULE
*****
 36 40 0 0 0
SMALL
GASTEIGER

@<TRIPOS>ATOM
      1 C         141.5736  142.3208  161.7430 C.2     1  UNL1        0.4243
      2 N         142.1934  140.9551  161.7207 N.2     1  UNL1        0.0275
      3 C         142.5884  140.2895  163.0057 C.2     1  UNL1        0.3996
      4 N         143.2150  138.9579  163.2950 N.2     1  UNL1        0.0831
      5 N         143.3775  138.8350  164.7811 N.2     1  UNL1       -0.0309
      6 C         142.8512  140.0909  165.4102 C.2     1  UNL1        0.1568
      7 C         142.3635  140.9898  164.3130 C.3     1  UNL1        0.2565
      8 C         141.7437  142.3556  164.3353 C.2     1  UNL1        0.3060
      9 O         141.5188  143.0559  165.6426 O.2     1  UNL1       -0.2554
     10 N         141.3487  143.0211  163.0504 N.am    1  UNL1       -0.1358
     11 C         140.7289  144.3869  163.0727 C.3     1  UNL1        0.2167
     12 C         140.7421  146.8828  154.9971 C.3     1  UNL1        0.0335
     13 C         140.3695  145.8025  155.9686 C.3     1  UNL1        0.1294
     14 O         139.1920  144.8804  155.8530 O.3     1  UNL1       -0.3548
     15 C         139.2038  143.9625  157.0394 C.3     1  UNL1        0.1435
     16 C         140.3886  144.3173  157.8882 C.3     1  UNL1        0.0490
     17 C         139.5664  143.1861  158.4306 C.3     1  UNL1        0.0444
     18 C         139.9614  142.5206  159.7155 C.3     1  UNL1        0.1682
     19 N         141.1786  142.9864  160.4581 N.pl3   1  UNL1       -0.1900
     20 C         142.0008  144.1176  159.9157 C.3     1  UNL1        0.1682
     21 C         141.6058  144.7831  158.6308 C.3     1  UNL1        0.0444
     22 C         141.1091  145.4545  157.2264 C.3     1  UNL1        0.0808
     23 N         142.3509  146.1257  157.7335 N.3     1  UNL1       -0.3202
     24 H         142.6400  145.6894  158.6090 H       1  UNL1        0.1189
     25 H         142.1616  147.1152  157.8930 H       1  UNL1        0.1189
     26 S         142.8184  140.3944  166.8788 S.3     1  UNL1       -0.0665
     27 C         141.5541  140.1887  167.6592 C.ar    1  UNL1        0.0455
     28 C         140.2682  139.9022  166.9420 C.ar    1  UNL1        0.0281
     29 C         139.0038  139.6965  167.7223 C.ar    1  UNL1        0.1009
     30 N         139.0254  139.7772  169.2200 N.ar    1  UNL1       -0.2287
     31 C         140.3112  140.0636  169.9373 C.ar    1  UNL1        0.1365
     32 N         140.3327  140.1443  171.4350 N.pl3   1  UNL1       -0.3419
     33 C         141.5756  140.2694  169.1569 C.ar    1  UNL1        0.0947
     34 CL        142.8615  140.5558  169.8742 Cl      1  UNL1       -0.0788
     35 H         139.5028  140.0092  171.9471 H       1  UNL1        0.1437
     36 H         141.1766  140.3323  171.9058 H       1  UNL1        0.1437
@<TRIPOS>BOND
     1    13    12    1
     2    13    14    1
     3    14    15    1
     4    15    16    1
     5    16    17    1
     6    17    18    1
     7    18    19    1
     8    19     1    1
     9     1     2    2
    10     2     3    1
    11     3     4    2
    12     4     5    1
    13     5     6    2
    14     6    26    1
    15    26    27    1
    16    27    28   ar
    17    28    29   ar
    18    29    30   ar
    19    30    31   ar
    20    31    32    1
    21    31    33   ar
    22    33    34    1
    23     6     7    1
    24     7     8    1
    25     8     9    2
    26     8    10   am
    27    10    11    1
    28    19    20    1
    29    20    21    1
    30    16    22    1
    31    22    23    1
    32    22    13    1
    33    21    16    1
    34    10     1    1
    35     7     3    1
    36    33    27   ar
    37    32    35    1
    38    32    36    1
    39    23    24    1
    40    23    25    1
