@<TRIPOS>MOLECULE
*****
 25 27 0 0 0
SMALL
GASTEIGER

@<TRIPOS>ATOM
      1 C         142.6686  143.8987  164.0608 C.ar    1  UNL1        0.2424
      2 C         141.8980  145.1486  163.7547 C.ar    1  UNL1        0.0641
      3 C         140.4145  145.1877  163.9732 C.ar    1  UNL1        0.0674
      4 C         139.7016  143.9768  164.4980 C.ar    1  UNL1        0.2807
      5 O         138.2181  144.0159  164.7165 O.2     1  UNL1       -0.2651
      6 N         140.4721  142.7267  164.8041 N.ar    1  UNL1       -0.1916
      7 N         141.9556  142.6877  164.5856 N.ar    1  UNL1       -0.1248
      8 C         139.7592  141.5158  165.3288 C.ar    1  UNL1        0.0861
      9 C         139.9424  141.0981  166.7578 C.ar    1  UNL1        0.0201
     10 C         139.2294  139.8872  167.2825 C.ar    1  UNL1        0.0129
     11 C         138.3332  139.0940  166.3783 C.ar    1  UNL1        0.0578
     12 CL        137.6203  137.8831  166.9030 Cl      1  UNL1       -0.0822
     13 C         138.1500  139.5117  164.9493 C.ar    1  UNL1        0.0129
     14 C         138.8631  140.7226  164.4246 C.ar    1  UNL1        0.0201
     15 O         144.1520  143.8596  163.8422 O.3     1  UNL1       -0.4592
     16 C         144.7175  143.1217  162.6649 C.3     1  UNL1        0.2086
     17 C         145.4155  141.8095  162.8670 C.3     1  UNL1        0.0647
     18 C         145.2073  141.0368  164.1356 C.3     1  UNL1        0.0759
     19 C         140.7830  137.0001  164.4980 C.3     1  UNL1        0.0001
     20 C         141.8891  138.0093  164.4074 C.3     1  UNL1        0.0028
     21 C         142.4219  138.4198  163.0667 C.3     1  UNL1        0.0174
     22 C         143.5279  139.4289  162.9761 C.3     1  UNL1        0.0721
     23 N         144.1012  140.0276  164.2262 N.3     1  UNL1       -0.2726
     24 C         143.5684  139.6171  165.5669 C.3     1  UNL1        0.0721
     25 C         142.4623  138.6080  165.6575 C.3     1  UNL1        0.0174
@<TRIPOS>BOND
     1    19    20    1
     2    20    21    1
     3    21    22    1
     4    22    23    1
     5    23    18    1
     6    18    17    1
     7    17    16    1
     8    16    15    1
     9    15     1    1
    10     1     2   ar
    11     2     3   ar
    12     3     4   ar
    13     4     5    2
    14     4     6   ar
    15     6     8    1
    16     8     9   ar
    17     9    10   ar
    18    10    11   ar
    19    11    12    1
    20    11    13   ar
    21    13    14   ar
    22     6     7   ar
    23    23    24    1
    24    24    25    1
    25    25    20    1
    26     7     1   ar
    27    14     8   ar
@<TRIPOS>MOLECULE
*****
 25 27 0 0 0
SMALL
GASTEIGER

@<TRIPOS>ATOM
      1 C         143.8423  141.7982  163.1524 C.ar    1  UNL1        0.2424
      2 C         145.1082  141.0487  163.4447 C.ar    1  UNL1        0.0641
      3 C         145.0819  139.8599  164.3591 C.ar    1  UNL1        0.0674
      4 C         143.7897  139.4206  164.9812 C.ar    1  UNL1        0.2807
      5 O         143.7633  138.2318  165.8955 O.2     1  UNL1       -0.2651
      6 N         142.5236  140.1702  164.6889 N.ar    1  UNL1       -0.1916
      7 N         142.5499  141.3590  163.7745 N.ar    1  UNL1       -0.1248
      8 C         141.2313  139.7309  165.3110 C.ar    1  UNL1        0.0861
      9 C         140.8163  140.2790  166.6442 C.ar    1  UNL1        0.0201
     10 C         139.5240  139.8397  167.2663 C.ar    1  UNL1        0.0129
     11 C         138.6467  138.8524  166.5552 C.ar    1  UNL1        0.0578
     12 CL        137.3544  138.4131  167.1773 Cl      1  UNL1       -0.0822
     13 C         139.0618  138.3043  165.2220 C.ar    1  UNL1        0.0129
     14 C         140.3541  138.7436  164.5999 C.ar    1  UNL1        0.0201
     15 O         143.8686  142.9870  162.2381 O.3     1  UNL1       -0.4592
     16 C         144.1823  144.3478  162.7859 C.3     1  UNL1        0.2086
     17 C         143.3390  144.9274  163.8826 C.3     1  UNL1        0.0647
     18 C         141.9251  145.3423  163.6019 C.3     1  UNL1        0.0759
     19 C         137.5475  141.2392  163.5562 C.3     1  UNL1        0.0001
     20 C         138.6419  142.2650  163.5676 C.3     1  UNL1        0.0028
     21 C         139.0991  142.8595  164.8666 C.3     1  UNL1        0.0174
     22 C         140.1935  143.8853  164.8781 C.3     1  UNL1        0.0721
     23 N         140.8307  144.3165  163.5905 N.3     1  UNL1       -0.2726
     24 C         140.3736  143.7220  162.2915 C.3     1  UNL1        0.0721
     25 C         139.2792  142.6962  162.2800 C.3     1  UNL1        0.0174
@<TRIPOS>BOND
     1    19    20    1
     2    20    21    1
     3    21    22    1
     4    22    23    1
     5    23    18    1
     6    18    17    1
     7    17    16    1
     8    16    15    1
     9    15     1    1
    10     1     2   ar
    11     2     3   ar
    12     3     4   ar
    13     4     5    2
    14     4     6   ar
    15     6     8    1
    16     8     9   ar
    17     9    10   ar
    18    10    11   ar
    19    11    12    1
    20    11    13   ar
    21    13    14   ar
    22     6     7   ar
    23    23    24    1
    24    24    25    1
    25    25    20    1
    26     7     1   ar
    27    14     8   ar
@<TRIPOS>MOLECULE
*****
 25 27 0 0 0
SMALL
GASTEIGER

@<TRIPOS>ATOM
      1 C         137.9188  140.5433  163.3231 C.ar    1  UNL1        0.2424
      2 C         137.9698  139.2741  162.5254 C.ar    1  UNL1        0.0641
      3 C         138.8043  138.1221  163.0014 C.ar    1  UNL1        0.0674
      4 C         139.5877  138.2392  164.2751 C.ar    1  UNL1        0.2807
      5 O         140.4222  137.0872  164.7510 O.2     1  UNL1       -0.2651
      6 N         139.5367  139.5085  165.0729 N.ar    1  UNL1       -0.1916
      7 N         138.7023  140.6605  164.5970 N.ar    1  UNL1       -0.1248
      8 C         140.3202  139.6257  166.3467 C.ar    1  UNL1        0.0861
      9 C         141.8146  139.4982  166.3225 C.ar    1  UNL1        0.0201
     10 C         142.5980  139.6154  167.5962 C.ar    1  UNL1        0.0129
     11 C         141.8871  139.8601  168.8942 C.ar    1  UNL1        0.0578
     12 CL        142.6705  139.9772  170.1680 Cl      1  UNL1       -0.0822
     13 C         140.3927  139.9875  168.9184 C.ar    1  UNL1        0.0129
     14 C         139.6092  139.8703  167.6446 C.ar    1  UNL1        0.0201
     15 O         137.0844  141.6953  162.8472 O.3     1  UNL1       -0.4592
     16 C         137.7428  142.9789  162.4361 C.3     1  UNL1        0.2086
     17 C         137.9491  144.0719  163.4425 C.3     1  UNL1        0.0647
     18 C         139.1091  145.0123  163.3014 C.3     1  UNL1        0.0759
     19 C         144.5572  143.3618  165.1969 C.3     1  UNL1        0.0001
     20 C         143.1952  143.7744  164.7230 C.3     1  UNL1        0.0028
     21 C         141.9833  143.0097  165.1664 C.3     1  UNL1        0.0174
     22 C         140.6213  143.4224  164.6925 C.3     1  UNL1        0.0721
     23 N         140.4711  144.5997  163.7752 N.3     1  UNL1       -0.2726
     24 C         141.6830  145.3643  163.3319 C.3     1  UNL1        0.0721
     25 C         143.0450  144.9517  163.8058 C.3     1  UNL1        0.0174
@<TRIPOS>BOND
     1    19    20    1
     2    20    21    1
     3    21    22    1
     4    22    23    1
     5    23    18    1
     6    18    17    1
     7    17    16    1
     8    16    15    1
     9    15     1    1
    10     1     2   ar
    11     2     3   ar
    12     3     4   ar
    13     4     5    2
    14     4     6   ar
    15     6     8    1
    16     8     9   ar
    17     9    10   ar
    18    10    11   ar
    19    11    12    1
    20    11    13   ar
    21    13    14   ar
    22     6     7   ar
    23    23    24    1
    24    24    25    1
    25    25    20    1
    26     7     1   ar
    27    14     8   ar
@<TRIPOS>MOLECULE
*****
 25 27 0 0 0
SMALL
GASTEIGER

@<TRIPOS>ATOM
      1 C         140.7406  143.9631  163.1357 C.ar    1  UNL1        0.2424
      2 C         141.6290  145.1655  163.2571 C.ar    1  UNL1        0.0641
      3 C         142.9272  145.0668  164.0020 C.ar    1  UNL1        0.0674
      4 C         143.3370  143.7656  164.6257 C.ar    1  UNL1        0.2807
      5 O         144.6352  143.6669  165.3706 O.2     1  UNL1       -0.2651
      6 N         142.4485  142.5631  164.5044 N.ar    1  UNL1       -0.1916
      7 N         141.1504  142.6618  163.7594 N.ar    1  UNL1       -0.1248
      8 C         142.8583  141.2619  165.1280 C.ar    1  UNL1        0.0861
      9 C         142.3006  140.8607  166.4614 C.ar    1  UNL1        0.0201
     10 C         142.7103  139.5596  167.0850 C.ar    1  UNL1        0.0129
     11 C         143.6779  138.6595  166.3753 C.ar    1  UNL1        0.0578
     12 CL        144.0877  137.3583  166.9989 Cl      1  UNL1       -0.0822
     13 C         144.2357  139.0606  165.0419 C.ar    1  UNL1        0.0129
     14 C         143.8258  140.3619  164.4182 C.ar    1  UNL1        0.0201
     15 O         139.4424  144.0618  162.3908 O.3     1  UNL1       -0.4592
     16 C         138.1564  144.2310  163.1441 C.3     1  UNL1        0.2086
     17 C         137.5393  143.0585  163.8473 C.3     1  UNL1        0.0647
     18 C         137.4057  141.7437  163.1377 C.3     1  UNL1        0.0759
     19 C         141.0460  137.1884  164.5508 C.3     1  UNL1        0.0001
     20 C         140.1359  138.3272  164.1975 C.3     1  UNL1        0.0028
     21 C         140.1422  138.8886  162.8065 C.3     1  UNL1        0.0174
     22 C         139.2321  140.0274  162.4533 C.3     1  UNL1        0.0721
     23 N         138.3158  140.6049  163.4909 N.3     1  UNL1       -0.2726
     24 C         138.3095  140.0435  164.8819 C.3     1  UNL1        0.0721
     25 C         139.2196  138.9047  165.2352 C.3     1  UNL1        0.0174
@<TRIPOS>BOND
     1    19    20    1
     2    20    21    1
     3    21    22    1
     4    22    23    1
     5    23    18    1
     6    18    17    1
     7    17    16    1
     8    16    15    1
     9    15     1    1
    10     1     2   ar
    11     2     3   ar
    12     3     4   ar
    13     4     5    2
    14     4     6   ar
    15     6     8    1
    16     8     9   ar
    17     9    10   ar
    18    10    11   ar
    19    11    12    1
    20    11    13   ar
    21    13    14   ar
    22     6     7   ar
    23    23    24    1
    24    24    25    1
    25    25    20    1
    26     7     1   ar
    27    14     8   ar
@<TRIPOS>MOLECULE
*****
 25 27 0 0 0
SMALL
GASTEIGER

@<TRIPOS>ATOM
      1 C         142.9433  139.0565  164.3627 C.ar    1  UNL1        0.2424
      2 C         144.4412  139.1064  164.3025 C.ar    1  UNL1        0.0641
      3 C         145.1316  140.3488  163.8230 C.ar    1  UNL1        0.0674
      4 C         144.3240  141.5412  163.4037 C.ar    1  UNL1        0.2807
      5 O         145.0144  142.7836  162.9243 O.2     1  UNL1       -0.2651
      6 N         142.8260  141.4914  163.4639 N.ar    1  UNL1       -0.1916
      7 N         142.1357  140.2490  163.9434 N.ar    1  UNL1       -0.1248
      8 C         142.0185  142.6839  163.0446 C.ar    1  UNL1        0.0861
      9 C         142.0753  143.9486  163.8491 C.ar    1  UNL1        0.0201
     10 C         141.2677  145.1411  163.4298 C.ar    1  UNL1        0.0129
     11 C         140.4033  145.0688  162.2060 C.ar    1  UNL1        0.0578
     12 CL        139.5958  146.2613  161.7868 Cl      1  UNL1       -0.0822
     13 C         140.3465  143.8041  161.4015 C.ar    1  UNL1        0.0129
     14 C         141.1541  142.6116  161.8209 C.ar    1  UNL1        0.0201
     15 O         142.2529  137.8141  164.8421 O.3     1  UNL1       -0.4592
     16 C         141.0442  137.3005  164.1173 C.3     1  UNL1        0.2086
     17 C         139.6708  137.6768  164.5888 C.3     1  UNL1        0.0647
     18 C         138.7572  138.4572  163.6909 C.3     1  UNL1        0.0759
     19 C         137.8750  144.3115  164.6653 C.3     1  UNL1        0.0001
     20 C         138.0956  142.8479  164.4217 C.3     1  UNL1        0.0028
     21 C         137.4382  142.1746  163.2536 C.3     1  UNL1        0.0174
     22 C         137.6588  140.7110  163.0100 C.3     1  UNL1        0.0721
     23 N         138.5367  139.9208  163.9345 N.3     1  UNL1       -0.2726
     24 C         139.1940  140.5941  165.1026 C.3     1  UNL1        0.0721
     25 C         138.9735  142.0576  165.3462 C.3     1  UNL1        0.0174
@<TRIPOS>BOND
     1    19    20    1
     2    20    21    1
     3    21    22    1
     4    22    23    1
     5    23    18    1
     6    18    17    1
     7    17    16    1
     8    16    15    1
     9    15     1    1
    10     1     2   ar
    11     2     3   ar
    12     3     4   ar
    13     4     5    2
    14     4     6   ar
    15     6     8    1
    16     8     9   ar
    17     9    10   ar
    18    10    11   ar
    19    11    12    1
    20    11    13   ar
    21    13    14   ar
    22     6     7   ar
    23    23    24    1
    24    24    25    1
    25    25    20    1
    26     7     1   ar
    27    14     8   ar
@<TRIPOS>MOLECULE
*****
 25 27 0 0 0
SMALL
GASTEIGER

@<TRIPOS>ATOM
      1 C         138.2446  140.5003  163.4415 C.ar    1  UNL1        0.2424
      2 C         137.4656  141.7206  163.0493 C.ar    1  UNL1        0.0641
      3 C         137.7477  143.0359  163.7130 C.ar    1  UNL1        0.0674
      4 C         138.8088  143.1308  164.7689 C.ar    1  UNL1        0.2807
      5 O         139.0909  144.4461  165.4326 O.2     1  UNL1       -0.2651
      6 N         139.5879  141.9104  165.1611 N.ar    1  UNL1       -0.1916
      7 N         139.3058  140.5952  164.4975 N.ar    1  UNL1       -0.1248
      8 C         140.6491  142.0054  166.2170 C.ar    1  UNL1        0.0861
      9 C         142.0774  142.2435  165.8257 C.ar    1  UNL1        0.0201
     10 C         143.1385  142.3385  166.8815 C.ar    1  UNL1        0.0129
     11 C         142.7713  142.1953  168.3289 C.ar    1  UNL1        0.0578
     12 CL        143.8325  142.2902  169.3848 Cl      1  UNL1       -0.0822
     13 C         141.3430  141.9572  168.7203 C.ar    1  UNL1        0.0129
     14 C         140.2819  141.8622  167.6643 C.ar    1  UNL1        0.0201
     15 O         137.9626  139.1850  162.7778 O.3     1  UNL1       -0.4592
     16 C         138.7916  137.9814  163.1157 C.3     1  UNL1        0.2086
     17 C         140.1659  137.8301  162.5340 C.3     1  UNL1        0.0647
     18 C         141.3422  137.6060  163.4373 C.3     1  UNL1        0.0759
     19 C         145.7867  141.6321  163.6301 C.3     1  UNL1        0.0001
     20 C         144.6756  140.6255  163.5819 C.3     1  UNL1        0.0028
     21 C         144.5111  139.6361  164.6972 C.3     1  UNL1        0.0174
     22 C         143.3999  138.6295  164.6490 C.3     1  UNL1        0.0721
     23 N         142.4533  138.6125  163.4855 N.3     1  UNL1       -0.2726
     24 C         142.6179  139.6020  162.3703 C.3     1  UNL1        0.0721
     25 C         143.7290  140.6085  162.4185 C.3     1  UNL1        0.0174
@<TRIPOS>BOND
     1    19    20    1
     2    20    21    1
     3    21    22    1
     4    22    23    1
     5    23    18    1
     6    18    17    1
     7    17    16    1
     8    16    15    1
     9    15     1    1
    10     1     2   ar
    11     2     3   ar
    12     3     4   ar
    13     4     5    2
    14     4     6   ar
    15     6     8    1
    16     8     9   ar
    17     9    10   ar
    18    10    11   ar
    19    11    12    1
    20    11    13   ar
    21    13    14   ar
    22     6     7   ar
    23    23    24    1
    24    24    25    1
    25    25    20    1
    26     7     1   ar
    27    14     8   ar
@<TRIPOS>MOLECULE
*****
 25 27 0 0 0
SMALL
GASTEIGER

@<TRIPOS>ATOM
      1 C         141.5860  140.5744  162.4905 C.ar    1  UNL1        0.2424
      2 C         141.4807  141.7760  161.5989 C.ar    1  UNL1        0.0641
      3 C         141.4737  143.1530  162.1937 C.ar    1  UNL1        0.0674
      4 C         141.5720  143.3284  163.6801 C.ar    1  UNL1        0.2807
      5 O         141.5651  144.7054  164.2750 O.2     1  UNL1       -0.2651
      6 N         141.6773  142.1268  164.5718 N.ar    1  UNL1       -0.1916
      7 N         141.6843  140.7498  163.9770 N.ar    1  UNL1       -0.1248
      8 C         141.7756  142.3022  166.0583 C.ar    1  UNL1        0.0861
      9 C         140.5543  142.6558  166.8541 C.ar    1  UNL1        0.0201
     10 C         140.6525  142.8312  168.3406 C.ar    1  UNL1        0.0129
     11 C         141.9722  142.6530  169.0312 C.ar    1  UNL1        0.0578
     12 CL        142.0704  142.8284  170.5177 Cl      1  UNL1       -0.0822
     13 C         143.1934  142.2993  168.2354 C.ar    1  UNL1        0.0129
     14 C         143.0951  142.1239  166.7488 C.ar    1  UNL1        0.0201
     15 O         141.5929  139.1974  161.8957 O.3     1  UNL1       -0.4592
     16 C         140.4458  138.7432  161.0424 C.3     1  UNL1        0.2086
     17 C         139.2678  138.0601  161.6714 C.3     1  UNL1        0.0647
     18 C         137.9752  138.8013  161.8440 C.3     1  UNL1        0.0759
     19 C         137.9176  144.1304  164.6003 C.3     1  UNL1        0.0001
     20 C         137.9320  142.7981  163.9112 C.3     1  UNL1        0.0028
     21 C         137.8042  142.7244  162.4185 C.3     1  UNL1        0.0174
     22 C         137.8186  141.3921  161.7294 C.3     1  UNL1        0.0721
     23 N         137.9608  140.1336  162.5331 N.3     1  UNL1       -0.2726
     24 C         138.0886  140.2073  164.0258 C.3     1  UNL1        0.0721
     25 C         138.0742  141.5396  164.7148 C.3     1  UNL1        0.0174
@<TRIPOS>BOND
     1    19    20    1
     2    20    21    1
     3    21    22    1
     4    22    23    1
     5    23    18    1
     6    18    17    1
     7    17    16    1
     8    16    15    1
     9    15     1    1
    10     1     2   ar
    11     2     3   ar
    12     3     4   ar
    13     4     5    2
    14     4     6   ar
    15     6     8    1
    16     8     9   ar
    17     9    10   ar
    18    10    11   ar
    19    11    12    1
    20    11    13   ar
    21    13    14   ar
    22     6     7   ar
    23    23    24    1
    24    24    25    1
    25    25    20    1
    26     7     1   ar
    27    14     8   ar
@<TRIPOS>MOLECULE
*****
 25 27 0 0 0
SMALL
GASTEIGER

@<TRIPOS>ATOM
      1 C         138.8772  143.4709  164.6047 C.ar    1  UNL1        0.2424
      2 C         137.8836  142.6564  163.8306 C.ar    1  UNL1        0.0641
      3 C         137.7127  141.1970  164.1321 C.ar    1  UNL1        0.0674
      4 C         138.5355  140.5521  165.2078 C.ar    1  UNL1        0.2807
      5 O         138.3646  139.0927  165.5094 O.2     1  UNL1       -0.2651
      6 N         139.5292  141.3666  165.9820 N.ar    1  UNL1       -0.1916
      7 N         139.7001  142.8260  165.6804 N.ar    1  UNL1       -0.1248
      8 C         140.3519  140.7216  167.0576 C.ar    1  UNL1        0.0861
      9 C         139.8031  140.5960  168.4480 C.ar    1  UNL1        0.0201
     10 C         140.6259  139.9511  169.5236 C.ar    1  UNL1        0.0129
     11 C         141.9975  139.4317  169.2090 C.ar    1  UNL1        0.0578
     12 CL        142.8202  138.7868  170.2846 Cl      1  UNL1       -0.0822
     13 C         142.5463  139.5573  167.8186 C.ar    1  UNL1        0.0129
     14 C         141.7235  140.2023  166.7430 C.ar    1  UNL1        0.0201
     15 O         139.0481  144.9303  164.3031 O.3     1  UNL1       -0.4592
     16 C         139.4601  145.3690  162.9291 C.3     1  UNL1        0.2086
     17 C         140.8662  145.1411  162.4591 C.3     1  UNL1        0.0647
     18 C         141.9891  145.0856  163.4520 C.3     1  UNL1        0.0759
     19 C         144.9891  139.9599  164.3049 C.3     1  UNL1        0.0001
     20 C         144.2391  141.2413  164.0917 C.3     1  UNL1        0.0028
     21 C         144.7921  142.5311  164.6214 C.3     1  UNL1        0.0174
     22 C         144.0422  143.8125  164.4081 C.3     1  UNL1        0.0721
     23 N         142.7391  143.8042  163.6653 N.3     1  UNL1       -0.2726
     24 C         142.1860  142.5144  163.1356 C.3     1  UNL1        0.0721
     25 C         142.9360  141.2330  163.3488 C.3     1  UNL1        0.0174
@<TRIPOS>BOND
     1    19    20    1
     2    20    21    1
     3    21    22    1
     4    22    23    1
     5    23    18    1
     6    18    17    1
     7    17    16    1
     8    16    15    1
     9    15     1    1
    10     1     2   ar
    11     2     3   ar
    12     3     4   ar
    13     4     5    2
    14     4     6   ar
    15     6     8    1
    16     8     9   ar
    17     9    10   ar
    18    10    11   ar
    19    11    12    1
    20    11    13   ar
    21    13    14   ar
    22     6     7   ar
    23    23    24    1
    24    24    25    1
    25    25    20    1
    26     7     1   ar
    27    14     8   ar
@<TRIPOS>MOLECULE
*****
 25 27 0 0 0
SMALL
GASTEIGER

@<TRIPOS>ATOM
      1 C         141.2443  137.9315  162.7303 C.ar    1  UNL1        0.2424
      2 C         142.4678  137.8059  161.8717 C.ar    1  UNL1        0.0641
      3 C         143.7610  138.4239  162.3139 C.ar    1  UNL1        0.0674
      4 C         143.8308  139.1675  163.6147 C.ar    1  UNL1        0.2807
      5 O         145.1241  139.7854  164.0569 O.2     1  UNL1       -0.2651
      6 N         142.6073  139.2931  164.4734 N.ar    1  UNL1       -0.1916
      7 N         141.3140  138.6751  164.0312 N.ar    1  UNL1       -0.1248
      8 C         142.6771  140.0367  165.7742 C.ar    1  UNL1        0.0861
      9 C         142.6480  139.2836  167.0711 C.ar    1  UNL1        0.0201
     10 C         142.7178  140.0272  168.3719 C.ar    1  UNL1        0.0129
     11 C         142.8167  141.5239  168.3759 C.ar    1  UNL1        0.0578
     12 CL        142.8865  142.2675  169.6767 Cl      1  UNL1       -0.0822
     13 C         142.8458  142.2771  167.0790 C.ar    1  UNL1        0.0129
     14 C         142.7760  141.5334  165.7781 C.ar    1  UNL1        0.0201
     15 O         139.9510  137.3135  162.2881 O.3     1  UNL1       -0.4592
     16 C         138.9664  138.1210  161.4953 C.3     1  UNL1        0.2086
     17 C         138.1586  139.1906  162.1688 C.3     1  UNL1        0.0647
     18 C         138.2733  140.6154  161.7140 C.3     1  UNL1        0.0759
     19 C         138.5550  145.0410  165.7556 C.3     1  UNL1        0.0001
     20 C         138.4846  143.9346  164.7452 C.3     1  UNL1        0.0028
     21 C         137.8432  144.1769  163.4111 C.3     1  UNL1        0.0174
     22 C         137.7727  143.0705  162.4007 C.3     1  UNL1        0.0721
     23 N         138.3437  141.7218  162.7244 N.3     1  UNL1       -0.2726
     24 C         138.9851  141.4794  164.0585 C.3     1  UNL1        0.0721
     25 C         139.0555  142.5859  165.0689 C.3     1  UNL1        0.0174
@<TRIPOS>BOND
     1    19    20    1
     2    20    21    1
     3    21    22    1
     4    22    23    1
     5    23    18    1
     6    18    17    1
     7    17    16    1
     8    16    15    1
     9    15     1    1
    10     1     2   ar
    11     2     3   ar
    12     3     4   ar
    13     4     5    2
    14     4     6   ar
    15     6     8    1
    16     8     9   ar
    17     9    10   ar
    18    10    11   ar
    19    11    12    1
    20    11    13   ar
    21    13    14   ar
    22     6     7   ar
    23    23    24    1
    24    24    25    1
    25    25    20    1
    26     7     1   ar
    27    14     8   ar
