@<TRIPOS>MOLECULE
*****
 33 36 0 0 0
SMALL
GASTEIGER

@<TRIPOS>ATOM
      1 C         141.0108  138.2013  155.9491 C.2     1  UNL1        0.2383
      2 O         139.6727  138.4995  155.3407 O.2     1  UNL1       -0.2735
      3 N         141.1628  138.1544  157.4407 N.am    1  UNL1       -0.2695
      4 C         142.5010  137.8561  158.0492 C.3     1  UNL1        0.1184
      5 C         142.6530  137.8093  159.5407 C.3     1  UNL1        0.1299
      6 N         141.4669  138.0607  160.4238 N.ar    1  UNL1       -0.3005
      7 C         140.1288  138.3590  159.8153 C.ar    1  UNL1        0.1416
      8 N         139.1473  138.5636  160.9311 N.ar    1  UNL1       -0.2279
      9 C         139.8790  138.3917  162.2292 C.ar    1  UNL1        0.1125
     10 C         141.3126  138.0809  161.9157 C.ar    1  UNL1        0.1318
     11 C         139.9767  138.4059  158.3237 C.3     1  UNL1        0.1578
     12 C         139.2820  138.5098  163.6003 C.ar    1  UNL1        0.0205
     13 C         139.0364  137.2779  164.4200 C.ar    1  UNL1        0.0039
     14 C         138.4394  137.3960  165.7910 C.ar    1  UNL1        0.0297
     15 C         138.0879  138.7460  166.3422 C.ar    1  UNL1        0.1401
     16 F         137.4909  138.8641  167.7132 F       1  UNL1       -0.2042
     17 C         138.3335  139.9779  165.5224 C.ar    1  UNL1        0.0297
     18 C         138.9305  139.8599  164.1515 C.ar    1  UNL1        0.0039
     19 C         141.8770  136.4844  155.0537 C.3     1  UNL1        0.0249
     20 C         142.1969  137.9498  155.0661 C.3     1  UNL1        0.1089
     21 C         142.5169  139.4152  155.0785 C.3     1  UNL1        0.0249
     22 N         143.3831  137.6983  154.1830 N.3     1  UNL1       -0.3164
     23 H         143.8571  138.5808  153.9908 H       1  UNL1        0.1192
     24 H         143.0716  137.2815  153.3057 H       1  UNL1        0.1192
     25 N         142.4008  137.8337  162.9180 N.pl3   1  UNL1       -0.2980
     26 H         142.9910  137.0517  162.8210 H       1  UNL1        0.1536
     27 C         142.5898  138.7779  164.0681 C.ar    1  UNL1        0.0495
     28 C         142.8625  140.2300  163.8094 C.ar    1  UNL1        0.0169
     29 C         143.0515  141.1742  164.9596 C.ar    1  UNL1        0.0309
     30 C         142.9678  140.6662  166.3685 C.ar    1  UNL1        0.1402
     31 F         143.1568  141.6103  167.5186 F       1  UNL1       -0.2042
     32 C         142.6951  139.2140  166.6272 C.ar    1  UNL1        0.0309
     33 C         142.5061  138.2699  165.4770 C.ar    1  UNL1        0.0169
@<TRIPOS>BOND
     1    19    20    1
     2    20    21    1
     3    20    22    1
     4    20     1    1
     5     1     2    2
     6     1     3   am
     7     3     4    1
     8     4     5    1
     9     5     6    1
    10     6     7   ar
    11     7     8   ar
    12     8     9   ar
    13     9    12    1
    14    12    13   ar
    15    13    14   ar
    16    14    15   ar
    17    15    16    1
    18    15    17   ar
    19    17    18   ar
    20     9    10   ar
    21    10    25    1
    22    25    27    1
    23    27    28   ar
    24    28    29   ar
    25    29    30   ar
    26    30    31    1
    27    30    32   ar
    28    32    33   ar
    29     7    11    1
    30    11     3    1
    31    10     6   ar
    32    33    27   ar
    33    18    12   ar
    34    22    23    1
    35    22    24    1
    36    25    26    1
@<TRIPOS>MOLECULE
*****
 33 36 0 0 0
SMALL
GASTEIGER

@<TRIPOS>ATOM
      1 C         142.1649  140.7285  169.8369 C.2     1  UNL1        0.2383
      2 O         143.4006  140.0130  170.2961 O.2     1  UNL1       -0.2735
      3 N         141.7985  140.7344  168.3823 N.am    1  UNL1       -0.2695
      4 C         140.5628  141.4499  167.9230 C.3     1  UNL1        0.1184
      5 C         140.1965  141.4558  166.4685 C.3     1  UNL1        0.1299
      6 N         141.0658  140.7461  165.4732 N.ar    1  UNL1       -0.3005
      7 C         142.3015  140.0305  165.9325 C.ar    1  UNL1        0.1416
      8 N         142.9595  139.4229  164.7292 N.ar    1  UNL1       -0.2279
      9 C         142.1305  139.7629  163.5263 C.ar    1  UNL1        0.1125
     10 C         140.9601  140.5807  163.9861 C.ar    1  UNL1        0.1318
     11 C         142.6678  140.0247  167.3870 C.3     1  UNL1        0.1578
     12 C         142.4209  139.3566  162.1118 C.ar    1  UNL1        0.0205
     13 C         142.9444  140.3663  161.1339 C.ar    1  UNL1        0.0039
     14 C         143.2348  139.9600  159.7195 C.ar    1  UNL1        0.0297
     15 C         143.0016  138.5440  159.2830 C.ar    1  UNL1        0.1401
     16 F         143.2920  138.1376  157.8686 F       1  UNL1       -0.2042
     17 C         142.4780  137.5343  160.2610 C.ar    1  UNL1        0.0297
     18 C         142.1877  137.9406  161.6754 C.ar    1  UNL1        0.0039
     19 C         140.4320  140.2173  170.9483 C.3     1  UNL1        0.0249
     20 C         141.2956  141.4382  170.8321 C.3     1  UNL1        0.1089
     21 C         142.1593  142.6591  170.7159 C.3     1  UNL1        0.0249
     22 N         140.4262  142.1479  171.8274 N.3     1  UNL1       -0.3164
     23 H         140.7829  143.0915  171.9785 H       1  UNL1        0.1192
     24 H         140.4327  141.6366  172.7100 H       1  UNL1        0.1192
     25 N         139.8746  141.1357  163.1122 N.pl3   1  UNL1       -0.2980
     26 H         139.1918  140.5355  162.7343 H       1  UNL1        0.1536
     27 C         139.8293  142.6051  162.8142 C.ar    1  UNL1        0.0495
     28 C         141.0016  143.2742  162.1599 C.ar    1  UNL1        0.0169
     29 C         140.9562  144.7436  161.8619 C.ar    1  UNL1        0.0309
     30 C         139.7386  145.5439  162.2181 C.ar    1  UNL1        0.1402
     31 F         139.6933  147.0133  161.9201 F       1  UNL1       -0.2042
     32 C         138.5664  144.8748  162.8724 C.ar    1  UNL1        0.0309
     33 C         138.6117  143.4055  163.1704 C.ar    1  UNL1        0.0169
@<TRIPOS>BOND
     1    19    20    1
     2    20    21    1
     3    20    22    1
     4    20     1    1
     5     1     2    2
     6     1     3   am
     7     3     4    1
     8     4     5    1
     9     5     6    1
    10     6     7   ar
    11     7     8   ar
    12     8     9   ar
    13     9    12    1
    14    12    13   ar
    15    13    14   ar
    16    14    15   ar
    17    15    16    1
    18    15    17   ar
    19    17    18   ar
    20     9    10   ar
    21    10    25    1
    22    25    27    1
    23    27    28   ar
    24    28    29   ar
    25    29    30   ar
    26    30    31    1
    27    30    32   ar
    28    32    33   ar
    29     7    11    1
    30    11     3    1
    31    10     6   ar
    32    33    27   ar
    33    18    12   ar
    34    22    23    1
    35    22    24    1
    36    25    26    1
@<TRIPOS>MOLECULE
*****
 33 36 0 0 0
SMALL
GASTEIGER

@<TRIPOS>ATOM
      1 C         140.8019  140.6047  169.8930 C.2     1  UNL1        0.2383
      2 O         139.9601  139.4648  170.3846 O.2     1  UNL1       -0.2735
      3 N         140.9769  140.8271  168.4199 N.am    1  UNL1       -0.2695
      4 C         141.8188  141.9670  167.9283 C.3     1  UNL1        0.1184
      5 C         141.9938  142.1894  166.4552 C.3     1  UNL1        0.1299
      6 N         141.3269  141.2718  165.4738 N.ar    1  UNL1       -0.3005
      7 C         140.4851  140.1318  165.9654 C.ar    1  UNL1        0.1416
      8 N         139.9548  139.3977  164.7696 N.ar    1  UNL1       -0.2279
      9 C         140.4690  140.0840  163.5389 C.ar    1  UNL1        0.1125
     10 C         141.3170  141.2422  163.9741 C.ar    1  UNL1        0.1318
     11 C         140.3101  139.9095  167.4385 C.3     1  UNL1        0.1578
     12 C         140.1850  139.6826  162.1217 C.ar    1  UNL1        0.0205
     13 C         138.8449  139.9738  161.5139 C.ar    1  UNL1        0.0039
     14 C         138.5609  139.5724  160.0968 C.ar    1  UNL1        0.0297
     15 C         139.6170  138.8798  159.2875 C.ar    1  UNL1        0.1401
     16 F         139.3330  138.4784  157.8703 F       1  UNL1       -0.2042
     17 C         140.9571  138.5886  159.8953 C.ar    1  UNL1        0.0297
     18 C         141.2411  138.9900  161.3124 C.ar    1  UNL1        0.0039
     19 C         140.2768  142.4320  170.8338 C.3     1  UNL1        0.0249
     20 C         141.4688  141.5223  170.8744 C.3     1  UNL1        0.1089
     21 C         142.6607  140.6127  170.9150 C.3     1  UNL1        0.0249
     22 N         142.1356  142.4400  171.8559 N.3     1  UNL1       -0.3164
     23 H         143.0510  142.0648  172.1044 H       1  UNL1        0.1192
     24 H         141.5604  142.5166  172.6948 H       1  UNL1        0.1192
     25 N         142.0299  142.2024  163.0687 N.pl3   1  UNL1       -0.2980
     26 H         142.9661  142.0357  162.8136 H       1  UNL1        0.1536
     27 C         141.3166  143.4164  162.5519 C.ar    1  UNL1        0.0495
     28 C         141.6681  143.9766  161.2055 C.ar    1  UNL1        0.0169
     29 C         140.9547  145.1908  160.6888 C.ar    1  UNL1        0.0309
     30 C         139.8897  145.8447  161.5184 C.ar    1  UNL1        0.1402
     31 F         139.1764  147.0588  161.0016 F       1  UNL1       -0.2042
     32 C         139.5382  145.2845  162.8647 C.ar    1  UNL1        0.0309
     33 C         140.2516  144.0704  163.3814 C.ar    1  UNL1        0.0169
@<TRIPOS>BOND
     1    19    20    1
     2    20    21    1
     3    20    22    1
     4    20     1    1
     5     1     2    2
     6     1     3   am
     7     3     4    1
     8     4     5    1
     9     5     6    1
    10     6     7   ar
    11     7     8   ar
    12     8     9   ar
    13     9    12    1
    14    12    13   ar
    15    13    14   ar
    16    14    15   ar
    17    15    16    1
    18    15    17   ar
    19    17    18   ar
    20     9    10   ar
    21    10    25    1
    22    25    27    1
    23    27    28   ar
    24    28    29   ar
    25    29    30   ar
    26    30    31    1
    27    30    32   ar
    28    32    33   ar
    29     7    11    1
    30    11     3    1
    31    10     6   ar
    32    33    27   ar
    33    18    12   ar
    34    22    23    1
    35    22    24    1
    36    25    26    1
@<TRIPOS>MOLECULE
*****
 33 36 0 0 0
SMALL
GASTEIGER

@<TRIPOS>ATOM
      1 C         140.2054  141.6312  169.8553 C.2     1  UNL1        0.2383
      2 O         140.4318  142.9321  170.5668 O.2     1  UNL1       -0.2735
      3 N         140.2156  141.5846  168.3560 N.am    1  UNL1       -0.2695
      4 C         139.9891  140.2837  167.6445 C.3     1  UNL1        0.1184
      5 C         139.9993  140.2371  166.1453 C.3     1  UNL1        0.1299
      6 N         140.2358  141.4915  165.3575 N.ar    1  UNL1       -0.3005
      7 C         140.4622  142.7924  166.0690 C.ar    1  UNL1        0.1416
      8 N         140.6677  143.8577  165.0331 N.ar    1  UNL1       -0.2279
      9 C         140.5682  143.2151  163.6814 C.ar    1  UNL1        0.1125
     10 C         140.3013  141.7527  163.8819 C.ar    1  UNL1        0.1318
     11 C         140.4521  142.8390  167.5683 C.3     1  UNL1        0.1578
     12 C         140.7107  143.9124  162.3610 C.ar    1  UNL1        0.0205
     13 C         139.8481  145.0973  162.0417 C.ar    1  UNL1        0.0039
     14 C         139.9905  145.7947  160.7213 C.ar    1  UNL1        0.0297
     15 C         140.9955  145.3071  159.7202 C.ar    1  UNL1        0.1401
     16 F         141.1379  146.0044  158.3998 F       1  UNL1       -0.2042
     17 C         141.8580  144.1222  160.0395 C.ar    1  UNL1        0.0297
     18 C         141.7156  143.4248  161.3599 C.ar    1  UNL1        0.0039
     19 C         141.4321  140.3026  170.9643 C.3     1  UNL1        0.0249
     20 C         139.9689  140.3768  170.6430 C.3     1  UNL1        0.1089
     21 C         138.5056  140.4510  170.3217 C.3     1  UNL1        0.0249
     22 N         139.7323  139.1224  171.4308 N.3     1  UNL1       -0.3164
     23 H         138.7406  138.8856  171.4034 H       1  UNL1        0.1192
     24 H         140.0203  139.2691  172.3983 H       1  UNL1        0.1192
     25 N         140.1300  140.7309  162.7972 N.pl3   1  UNL1       -0.2980
     26 H         139.2697  140.6540  162.3249 H       1  UNL1        0.1536
     27 C         141.2694  139.8262  162.4322 C.ar    1  UNL1        0.0495
     28 C         141.0301  138.6372  161.5497 C.ar    1  UNL1        0.0169
     29 C         142.1697  137.7326  161.1847 C.ar    1  UNL1        0.0309
     30 C         143.5485  138.0170  161.7023 C.ar    1  UNL1        0.1402
     31 F         144.6880  137.1124  161.3373 F       1  UNL1       -0.2042
     32 C         143.7879  139.2060  162.5848 C.ar    1  UNL1        0.0309
     33 C         142.6483  140.1106  162.9498 C.ar    1  UNL1        0.0169
@<TRIPOS>BOND
     1    19    20    1
     2    20    21    1
     3    20    22    1
     4    20     1    1
     5     1     2    2
     6     1     3   am
     7     3     4    1
     8     4     5    1
     9     5     6    1
    10     6     7   ar
    11     7     8   ar
    12     8     9   ar
    13     9    12    1
    14    12    13   ar
    15    13    14   ar
    16    14    15   ar
    17    15    16    1
    18    15    17   ar
    19    17    18   ar
    20     9    10   ar
    21    10    25    1
    22    25    27    1
    23    27    28   ar
    24    28    29   ar
    25    29    30   ar
    26    30    31    1
    27    30    32   ar
    28    32    33   ar
    29     7    11    1
    30    11     3    1
    31    10     6   ar
    32    33    27   ar
    33    18    12   ar
    34    22    23    1
    35    22    24    1
    36    25    26    1
@<TRIPOS>MOLECULE
*****
 33 36 0 0 0
SMALL
GASTEIGER

@<TRIPOS>ATOM
      1 C         145.4744  141.1251  156.1568 C.2     1  UNL1        0.2383
      2 O         145.7172  139.7965  155.5042 O.2     1  UNL1       -0.2735
      3 N         144.6478  141.2072  157.4058 N.am    1  UNL1       -0.2695
      4 C         144.4050  142.5357  158.0585 C.3     1  UNL1        0.1184
      5 C         143.5784  142.6178  159.3075 C.3     1  UNL1        0.1299
      6 N         142.9946  141.3715  159.9038 N.ar    1  UNL1       -0.3005
      7 C         143.2374  140.0429  159.2512 C.ar    1  UNL1        0.1416
      8 N         142.5380  138.9930  160.0627 N.ar    1  UNL1       -0.2279
      9 C         141.8629  139.6727  161.2170 C.ar    1  UNL1        0.1125
     10 C         142.1451  141.1427  161.1188 C.ar    1  UNL1        0.1318
     11 C         144.0640  139.9608  158.0022 C.3     1  UNL1        0.1578
     12 C         141.0486  139.0005  162.2824 C.ar    1  UNL1        0.0205
     13 C         139.5513  139.0835  162.2463 C.ar    1  UNL1        0.0039
     14 C         138.7370  138.4113  163.3116 C.ar    1  UNL1        0.0297
     15 C         139.4199  137.6562  164.4131 C.ar    1  UNL1        0.1401
     16 F         138.6056  136.9840  165.4786 F       1  UNL1       -0.2042
     17 C         140.9172  137.5733  164.4493 C.ar    1  UNL1        0.0297
     18 C         141.7315  138.2454  163.3839 C.ar    1  UNL1        0.0039
     19 C         144.8378  142.5331  154.7036 C.3     1  UNL1        0.0249
     20 C         146.0582  142.3714  155.5605 C.3     1  UNL1        0.1089
     21 C         147.2786  142.2098  156.4175 C.3     1  UNL1        0.0249
     22 N         146.6420  143.6179  154.9641 N.3     1  UNL1       -0.3164
     23 H         147.5567  143.7968  155.3784 H       1  UNL1        0.1192
     24 H         146.0234  144.4068  155.1523 H       1  UNL1        0.1192
     25 N         141.6626  142.1985  162.0687 N.pl3   1  UNL1       -0.2980
     26 H         140.7390  142.5332  162.0048 H       1  UNL1        0.1536
     27 C         142.5873  142.7444  163.1160 C.ar    1  UNL1        0.0495
     28 C         142.9045  144.2101  163.1462 C.ar    1  UNL1        0.0169
     29 C         143.8293  144.7560  164.1936 C.ar    1  UNL1        0.0309
     30 C         144.4368  143.8361  165.2108 C.ar    1  UNL1        0.1402
     31 F         145.3615  144.3820  166.2581 F       1  UNL1       -0.2042
     32 C         144.1197  142.3703  165.1806 C.ar    1  UNL1        0.0309
     33 C         143.1949  141.8245  164.1332 C.ar    1  UNL1        0.0169
@<TRIPOS>BOND
     1    19    20    1
     2    20    21    1
     3    20    22    1
     4    20     1    1
     5     1     2    2
     6     1     3   am
     7     3     4    1
     8     4     5    1
     9     5     6    1
    10     6     7   ar
    11     7     8   ar
    12     8     9   ar
    13     9    12    1
    14    12    13   ar
    15    13    14   ar
    16    14    15   ar
    17    15    16    1
    18    15    17   ar
    19    17    18   ar
    20     9    10   ar
    21    10    25    1
    22    25    27    1
    23    27    28   ar
    24    28    29   ar
    25    29    30   ar
    26    30    31    1
    27    30    32   ar
    28    32    33   ar
    29     7    11    1
    30    11     3    1
    31    10     6   ar
    32    33    27   ar
    33    18    12   ar
    34    22    23    1
    35    22    24    1
    36    25    26    1
@<TRIPOS>MOLECULE
*****
 33 36 0 0 0
SMALL
GASTEIGER

@<TRIPOS>ATOM
      1 C         142.4945  142.1601  169.4501 C.2     1  UNL1        0.2383
      2 O         143.8924  142.6926  169.5611 O.2     1  UNL1       -0.2735
      3 N         142.0306  141.5323  168.1693 N.am    1  UNL1       -0.2695
      4 C         140.6327  140.9998  168.0583 C.3     1  UNL1        0.1184
      5 C         140.1687  140.3720  166.7774 C.3     1  UNL1        0.1299
      6 N         141.1027  140.2767  165.6075 N.ar    1  UNL1       -0.3005
      7 C         142.5006  140.8091  165.7185 C.ar    1  UNL1        0.1416
      8 N         143.1907  140.5766  164.4071 N.ar    1  UNL1       -0.2279
      9 C         142.2193  139.9004  163.4857 C.ar    1  UNL1        0.1125
     10 C         140.9288  139.7151  164.2276 C.ar    1  UNL1        0.1318
     11 C         142.9645  141.4369  166.9994 C.3     1  UNL1        0.1578
     12 C         142.4906  139.4829  162.0707 C.ar    1  UNL1        0.0205
     13 C         142.8661  138.0628  161.7667 C.ar    1  UNL1        0.0039
     14 C         143.1375  137.6453  160.3518 C.ar    1  UNL1        0.0297
     15 C         143.0333  138.6478  159.2409 C.ar    1  UNL1        0.1401
     16 F         143.3047  138.2302  157.8259 F       1  UNL1       -0.2042
     17 C         142.6578  140.0678  159.5449 C.ar    1  UNL1        0.0297
     18 C         142.3864  140.4854  160.9598 C.ar    1  UNL1        0.0039
     19 C         142.0781  140.9471  171.1398 C.3     1  UNL1        0.0249
     20 C         141.5606  142.2554  170.6200 C.3     1  UNL1        0.1089
     21 C         141.0430  143.5638  170.1002 C.3     1  UNL1        0.0249
     22 N         140.6266  142.3508  171.7899 N.3     1  UNL1       -0.3164
     23 H         140.0831  143.2112  171.7219 H       1  UNL1        0.1192
     24 H         141.1657  142.3567  172.6558 H       1  UNL1        0.1192
     25 N         139.6832  139.0796  163.6848 N.pl3   1  UNL1       -0.2980
     26 H         139.1877  138.4249  164.2280 H       1  UNL1        0.1536
     27 C         139.1924  139.4417  162.3144 C.ar    1  UNL1        0.0495
     28 C         138.6401  140.8117  162.0532 C.ar    1  UNL1        0.0169
     29 C         138.1493  141.1737  160.6827 C.ar    1  UNL1        0.0309
     30 C         138.2108  140.1658  159.5735 C.ar    1  UNL1        0.1402
     31 F         137.7200  140.5279  158.2031 F       1  UNL1       -0.2042
     32 C         138.7631  138.7959  159.8347 C.ar    1  UNL1        0.0309
     33 C         139.2539  138.4339  161.2051 C.ar    1  UNL1        0.0169
@<TRIPOS>BOND
     1    19    20    1
     2    20    21    1
     3    20    22    1
     4    20     1    1
     5     1     2    2
     6     1     3   am
     7     3     4    1
     8     4     5    1
     9     5     6    1
    10     6     7   ar
    11     7     8   ar
    12     8     9   ar
    13     9    12    1
    14    12    13   ar
    15    13    14   ar
    16    14    15   ar
    17    15    16    1
    18    15    17   ar
    19    17    18   ar
    20     9    10   ar
    21    10    25    1
    22    25    27    1
    23    27    28   ar
    24    28    29   ar
    25    29    30   ar
    26    30    31    1
    27    30    32   ar
    28    32    33   ar
    29     7    11    1
    30    11     3    1
    31    10     6   ar
    32    33    27   ar
    33    18    12   ar
    34    22    23    1
    35    22    24    1
    36    25    26    1
@<TRIPOS>MOLECULE
*****
 33 36 0 0 0
SMALL
GASTEIGER

@<TRIPOS>ATOM
      1 C         143.1705  137.1875  155.5646 C.2     1  UNL1        0.2383
      2 O         144.5398  136.6603  155.8760 O.2     1  UNL1       -0.2735
      3 N         142.2625  137.6203  156.6774 N.am    1  UNL1       -0.2695
      4 C         140.8932  138.1475  156.3661 C.3     1  UNL1        0.1184
      5 C         139.9852  138.5803  157.4789 C.3     1  UNL1        0.1299
      6 N         140.4466  138.4858  158.9030 N.ar    1  UNL1       -0.3005
      7 C         141.8159  137.9585  159.2144 C.ar    1  UNL1        0.1416
      8 N         141.9939  137.9814  160.7037 N.ar    1  UNL1       -0.2279
      9 C         140.7345  138.5227  161.3127 C.ar    1  UNL1        0.1125
     10 C         139.7783  138.8344  160.1998 C.ar    1  UNL1        0.1318
     11 C         142.7239  137.5258  158.1016 C.3     1  UNL1        0.1578
     12 C         140.4767  138.7180  162.7774 C.ar    1  UNL1        0.0205
     13 C         141.0058  139.9352  163.4763 C.ar    1  UNL1        0.0039
     14 C         140.7479  140.1306  164.9410 C.ar    1  UNL1        0.0297
     15 C         139.9610  139.1087  165.7068 C.ar    1  UNL1        0.1401
     16 F         139.7031  139.3041  167.1715 F       1  UNL1       -0.2042
     17 C         139.4319  137.8915  165.0079 C.ar    1  UNL1        0.0297
     18 C         139.6897  137.6962  163.5432 C.ar    1  UNL1        0.0039
     19 C         142.2347  135.8602  154.1999 C.3     1  UNL1        0.0249
     20 C         142.7091  137.2820  154.1405 C.3     1  UNL1        0.1089
     21 C         143.1836  138.7037  154.0811 C.3     1  UNL1        0.0249
     22 N         142.2477  137.3764  152.7163 N.3     1  UNL1       -0.3164
     23 H         142.4473  138.3093  152.3554 H       1  UNL1        0.1192
     24 H         141.2437  137.2023  152.6719 H       1  UNL1        0.1192
     25 N         138.3963  139.3962  160.3563 N.pl3   1  UNL1       -0.2980
     26 H         137.6306  138.9449  159.9330 H       1  UNL1        0.1536
     27 C         138.1809  140.6457  161.1578 C.ar    1  UNL1        0.0495
     28 C         137.4837  140.5752  162.4841 C.ar    1  UNL1        0.0169
     29 C         137.2683  141.8248  163.2856 C.ar    1  UNL1        0.0309
     30 C         137.7501  143.1448  162.7607 C.ar    1  UNL1        0.1402
     31 F         137.5346  144.3943  163.5622 F       1  UNL1       -0.2042
     32 C         138.4472  143.2153  161.4344 C.ar    1  UNL1        0.0309
     33 C         138.6626  141.9658  160.6330 C.ar    1  UNL1        0.0169
@<TRIPOS>BOND
     1    19    20    1
     2    20    21    1
     3    20    22    1
     4    20     1    1
     5     1     2    2
     6     1     3   am
     7     3     4    1
     8     4     5    1
     9     5     6    1
    10     6     7   ar
    11     7     8   ar
    12     8     9   ar
    13     9    12    1
    14    12    13   ar
    15    13    14   ar
    16    14    15   ar
    17    15    16    1
    18    15    17   ar
    19    17    18   ar
    20     9    10   ar
    21    10    25    1
    22    25    27    1
    23    27    28   ar
    24    28    29   ar
    25    29    30   ar
    26    30    31    1
    27    30    32   ar
    28    32    33   ar
    29     7    11    1
    30    11     3    1
    31    10     6   ar
    32    33    27   ar
    33    18    12   ar
    34    22    23    1
    35    22    24    1
    36    25    26    1
@<TRIPOS>MOLECULE
*****
 33 36 0 0 0
SMALL
GASTEIGER

@<TRIPOS>ATOM
      1 C         140.7589  141.9490  169.7315 C.2     1  UNL1        0.2383
      2 O         139.4449  142.5441  170.1428 O.2     1  UNL1       -0.2735
      3 N         141.2016  142.0253  168.3003 N.am    1  UNL1       -0.2695
      4 C         142.5156  141.4303  167.8889 C.3     1  UNL1        0.1184
      5 C         142.9582  141.5066  166.4578 C.3     1  UNL1        0.1299
      6 N         142.0869  142.1779  165.4380 N.ar    1  UNL1       -0.3005
      7 C         140.7729  142.7730  165.8493 C.ar    1  UNL1        0.1416
      8 N         140.1314  143.3674  164.6306 N.ar    1  UNL1       -0.2279
      9 C         141.0489  143.1398  163.4661 C.ar    1  UNL1        0.1125
     10 C         142.2575  142.4046  163.9651 C.ar    1  UNL1        0.1318
     11 C         140.3302  142.6967  167.2805 C.3     1  UNL1        0.1578
     12 C         140.8014  143.5714  162.0510 C.ar    1  UNL1        0.0205
     13 C         140.5061  142.5475  160.9953 C.ar    1  UNL1        0.0039
     14 C         140.2586  142.9791  159.5803 C.ar    1  UNL1        0.0297
     15 C         140.3064  144.4346  159.2209 C.ar    1  UNL1        0.1401
     16 F         140.0590  144.8663  157.8058 F       1  UNL1       -0.2042
     17 C         140.6018  145.4585  160.2765 C.ar    1  UNL1        0.0297
     18 C         140.8493  145.0269  161.6916 C.ar    1  UNL1        0.0039
     19 C         140.8410  140.0121  170.5924 C.3     1  UNL1        0.0249
     20 C         141.6302  141.2777  170.7512 C.3     1  UNL1        0.1089
     21 C         142.4195  142.5433  170.9101 C.3     1  UNL1        0.0249
     22 N         142.5016  140.6063  171.7711 N.3     1  UNL1       -0.3164
     23 H         143.2051  141.2655  172.1041 H       1  UNL1        0.1192
     24 H         142.9633  139.8017  171.3470 H       1  UNL1        0.1192
     25 N         143.4307  141.9721  163.1366 N.pl3   1  UNL1       -0.2980
     26 H         144.2365  142.5360  163.0921 H       1  UNL1        0.1536
     27 C         143.3763  140.6805  162.3759 C.ar    1  UNL1        0.0495
     28 C         142.9459  139.4206  163.0669 C.ar    1  UNL1        0.0169
     29 C         142.8915  138.1289  162.3061 C.ar    1  UNL1        0.0309
     30 C         143.2676  138.0972  160.8543 C.ar    1  UNL1        0.1402
     31 F         143.2131  136.8056  160.0936 F       1  UNL1       -0.2042
     32 C         143.6980  139.3570  160.1633 C.ar    1  UNL1        0.0309
     33 C         143.7524  140.6486  160.9241 C.ar    1  UNL1        0.0169
@<TRIPOS>BOND
     1    19    20    1
     2    20    21    1
     3    20    22    1
     4    20     1    1
     5     1     2    2
     6     1     3   am
     7     3     4    1
     8     4     5    1
     9     5     6    1
    10     6     7   ar
    11     7     8   ar
    12     8     9   ar
    13     9    12    1
    14    12    13   ar
    15    13    14   ar
    16    14    15   ar
    17    15    16    1
    18    15    17   ar
    19    17    18   ar
    20     9    10   ar
    21    10    25    1
    22    25    27    1
    23    27    28   ar
    24    28    29   ar
    25    29    30   ar
    26    30    31    1
    27    30    32   ar
    28    32    33   ar
    29     7    11    1
    30    11     3    1
    31    10     6   ar
    32    33    27   ar
    33    18    12   ar
    34    22    23    1
    35    22    24    1
    36    25    26    1
@<TRIPOS>MOLECULE
*****
 33 36 0 0 0
SMALL
GASTEIGER

@<TRIPOS>ATOM
      1 C         145.1243  141.3194  155.9597 C.2     1  UNL1        0.2383
      2 O         144.8872  140.1544  155.0451 O.2     1  UNL1       -0.2735
      3 N         144.5473  141.3156  157.3443 N.am    1  UNL1       -0.2695
      4 C         144.7844  142.4806  158.2588 C.3     1  UNL1        0.1184
      5 C         144.2073  142.4768  159.6434 C.3     1  UNL1        0.1299
      6 N         143.3932  141.3080  160.1134 N.ar    1  UNL1       -0.3005
      7 C         143.1561  140.1430  159.1988 C.ar    1  UNL1        0.1416
      8 N         142.3189  139.1390  159.9345 N.ar    1  UNL1       -0.2279
      9 C         142.0386  139.6835  161.3038 C.ar    1  UNL1        0.1125
     10 C         142.7026  141.0241  161.4143 C.ar    1  UNL1        0.1318
     11 C         143.7331  140.1468  157.8143 C.3     1  UNL1        0.1578
     12 C         141.2354  139.0065  162.3746 C.ar    1  UNL1        0.0205
     13 C         139.7846  139.3444  162.5506 C.ar    1  UNL1        0.0039
     14 C         138.9814  138.6674  163.6213 C.ar    1  UNL1        0.0297
     15 C         139.6290  137.6525  164.5160 C.ar    1  UNL1        0.1401
     16 F         138.8258  136.9755  165.5868 F       1  UNL1       -0.2042
     17 C         141.0798  137.3146  164.3400 C.ar    1  UNL1        0.0297
     18 C         141.8830  137.9916  163.2693 C.ar    1  UNL1        0.0039
     19 C         147.1689  141.8706  156.0851 C.3     1  UNL1        0.0249
     20 C         145.9384  142.4883  155.4897 C.3     1  UNL1        0.1089
     21 C         144.7080  143.1059  154.8943 C.3     1  UNL1        0.0249
     22 N         146.7527  143.6571  155.0197 N.3     1  UNL1       -0.3164
     23 H         146.1484  144.3181  154.5314 H       1  UNL1        0.1192
     24 H         147.4818  143.3306  154.3855 H       1  UNL1        0.1192
     25 N         142.6799  141.9229  162.6150 N.pl3   1  UNL1       -0.2980
     26 H         143.5224  142.1723  163.0591 H       1  UNL1        0.1536
     27 C         141.3737  142.4417  163.1389 C.ar    1  UNL1        0.0495
     28 C         140.3899  143.0787  162.2028 C.ar    1  UNL1        0.0169
     29 C         139.0836  143.5976  162.7269 C.ar    1  UNL1        0.0309
     30 C         138.7612  143.4794  164.1870 C.ar    1  UNL1        0.1402
     31 F         137.4550  143.9982  164.7110 F       1  UNL1       -0.2042
     32 C         139.7450  142.8424  165.1232 C.ar    1  UNL1        0.0309
     33 C         141.0512  142.3236  164.5991 C.ar    1  UNL1        0.0169
@<TRIPOS>BOND
     1    19    20    1
     2    20    21    1
     3    20    22    1
     4    20     1    1
     5     1     2    2
     6     1     3   am
     7     3     4    1
     8     4     5    1
     9     5     6    1
    10     6     7   ar
    11     7     8   ar
    12     8     9   ar
    13     9    12    1
    14    12    13   ar
    15    13    14   ar
    16    14    15   ar
    17    15    16    1
    18    15    17   ar
    19    17    18   ar
    20     9    10   ar
    21    10    25    1
    22    25    27    1
    23    27    28   ar
    24    28    29   ar
    25    29    30   ar
    26    30    31    1
    27    30    32   ar
    28    32    33   ar
    29     7    11    1
    30    11     3    1
    31    10     6   ar
    32    33    27   ar
    33    18    12   ar
    34    22    23    1
    35    22    24    1
    36    25    26    1
