@<TRIPOS>MOLECULE
*****
 36 39 0 0 0
SMALL
GASTEIGER

@<TRIPOS>ATOM
      1 N         142.3677  140.9543  160.2848 N.3     1  UNL1       -0.2684
      2 C         140.8724  140.8710  160.2006 C.3     1  UNL1        0.1035
      3 C         140.0231  141.8525  160.9524 C.3     1  UNL1        0.1470
      4 C         139.1737  142.8340  161.7042 C.3     1  UNL1        0.1035
      5 N         139.8196  143.8990  162.5401 N.3     1  UNL1       -0.2685
      6 C         141.3150  143.9823  162.6242 C.3     1  UNL1        0.1035
      7 C         142.1643  143.0008  161.8724 C.3     1  UNL1        0.1470
      8 C         143.0136  142.0193  161.1207 C.3     1  UNL1        0.1035
      9 O         140.6690  142.9174  161.7883 O.3     1  UNL1       -0.3530
     10 C         143.2171  139.9728  159.5330 C.3     1  UNL1        0.0761
     11 C         143.7912  138.7814  160.2407 C.3     1  UNL1        0.0646
     12 C         143.1505  138.2761  161.4995 C.3     1  UNL1        0.2068
     13 O         141.8189  137.5884  161.4394 O.3     1  UNL1       -0.4754
     14 C         139.0105  137.8126  164.9484 C.ar    1  UNL1        0.0686
     15 C         138.5196  138.1510  163.5720 C.ar    1  UNL1        0.0134
     16 C         139.4556  138.0763  162.4024 C.ar    1  UNL1        0.0376
     17 C         140.8828  137.6631  162.6091 C.ar    1  UNL1        0.1386
     18 C         141.3737  137.3246  163.9854 C.ar    1  UNL1        0.0376
     19 C         140.4376  137.3994  165.1551 C.ar    1  UNL1        0.0134
     20 N         137.1384  137.9620  167.2878 N.1     1  UNL1       -0.1908
     21 C         138.0745  137.8873  166.1180 C.1     1  UNL1        0.1004
     22 C         138.9703  144.8805  163.2918 C.3     1  UNL1        0.0737
     23 C         138.5937  144.6085  164.7181 C.3     1  UNL1        0.0361
     24 C         139.4857  143.7669  165.5819 C.3     1  UNL1        0.0925
     25 N         139.4588  142.2725  165.4561 N.3     1  UNL1       -0.1830
     26 H         139.2008  142.0628  164.4918 H       1  UNL1        0.1484
     27 S         140.6908  141.4720  165.7586 S.O2    1  UNL1        0.0450
     28 O         140.6526  140.8910  164.3762 O.2     1  UNL1       -0.1572
     29 O         140.7290  142.0530  167.1409 O.2     1  UNL1       -0.1572
     30 C         141.9227  140.6715  166.0610 C.3     1  UNL1        0.1952
     31 C         143.2004  140.9555  165.3282 C.ar    1  UNL1        0.0029
     32 C         143.6864  142.3676  165.1877 C.ar    1  UNL1       -0.0025
     33 C         144.9641  142.6516  164.4550 C.ar    1  UNL1       -0.0003
     34 C         145.7557  141.5236  163.8627 C.ar    1  UNL1       -0.0000
     35 C         145.2696  140.1115  164.0032 C.ar    1  UNL1       -0.0003
     36 C         143.9920  139.8275  164.7360 C.ar    1  UNL1       -0.0025
@<TRIPOS>BOND
     1    20    21    3
     2    21    14    1
     3    14    15   ar
     4    15    16   ar
     5    16    17   ar
     6    17    13    1
     7    13    12    1
     8    12    11    1
     9    11    10    1
    10    10     1    1
    11     1     2    1
    12     2     3    1
    13     3     4    1
    14     4     5    1
    15     5    22    1
    16    22    23    1
    17    23    24    1
    18    24    25    1
    19    25    27    1
    20    27    28    2
    21    27    29    2
    22    27    30    1
    23    30    31    1
    24    31    32   ar
    25    32    33   ar
    26    33    34   ar
    27    34    35   ar
    28    35    36   ar
    29     5     6    1
    30     6     7    1
    31     7     8    1
    32     7     9    1
    33    17    18   ar
    34    18    19   ar
    35    19    14   ar
    36     8     1    1
    37     9     3    1
    38    36    31   ar
    39    25    26    1
@<TRIPOS>MOLECULE
*****
 36 39 0 0 0
SMALL
GASTEIGER

@<TRIPOS>ATOM
      1 N         138.4499  140.5368  164.9348 N.3     1  UNL1       -0.2684
      2 C         139.3812  141.5378  165.5517 C.3     1  UNL1        0.1035
      3 C         139.6077  142.8620  164.8846 C.3     1  UNL1        0.1470
      4 C         139.8342  144.1863  164.2175 C.3     1  UNL1        0.1035
      5 N         139.1294  144.5096  162.9335 N.3     1  UNL1       -0.2685
      6 C         138.1980  143.5085  162.3166 C.3     1  UNL1        0.1035
      7 C         137.9715  142.1843  162.9837 C.3     1  UNL1        0.1470
      8 C         137.7450  140.8601  163.6508 C.3     1  UNL1        0.1035
      9 O         138.9029  143.1852  163.6006 O.3     1  UNL1       -0.3530
     10 C         138.2233  139.2125  165.6019 C.3     1  UNL1        0.0761
     11 C         138.9501  137.9937  165.1158 C.3     1  UNL1        0.0646
     12 C         139.1008  137.7477  163.6437 C.3     1  UNL1        0.2068
     13 O         140.3722  137.1593  163.1079 O.3     1  UNL1       -0.4754
     14 C         142.7430  139.3815  159.9948 C.ar    1  UNL1        0.0686
     15 C         143.4176  138.3643  160.8666 C.ar    1  UNL1        0.0134
     16 C         142.6274  137.6235  161.9043 C.ar    1  UNL1        0.0376
     17 C         141.1625  137.9001  162.0702 C.ar    1  UNL1        0.1386
     18 C         140.4878  138.9173  161.1984 C.ar    1  UNL1        0.0376
     19 C         141.2781  139.6581  160.1607 C.ar    1  UNL1        0.0134
     20 N         144.3235  140.8631  157.9194 N.1     1  UNL1       -0.1908
     21 C         143.5332  140.1223  158.9571 C.1     1  UNL1        0.1004
     22 C         139.3559  145.8338  162.2664 C.3     1  UNL1        0.0737
     23 C         140.0709  145.8976  160.9493 C.3     1  UNL1        0.0361
     24 C         141.2354  144.9903  160.6834 C.3     1  UNL1        0.0925
     25 N         142.3421  144.8760  161.6895 N.3     1  UNL1       -0.1830
     26 H         141.9101  144.9420  162.6111 H       1  UNL1        0.1484
     27 S         143.2165  143.6573  161.7074 S.O2    1  UNL1        0.0450
     28 O         142.3614  143.0282  160.6477 O.2     1  UNL1       -0.1572
     29 O         144.0716  144.2863  162.7672 O.2     1  UNL1       -0.1572
     30 C         144.0909  142.4386  161.7253 C.3     1  UNL1        0.1952
     31 C         143.9487  141.4297  162.8261 C.ar    1  UNL1        0.0029
     32 C         145.1429  140.6461  163.2841 C.ar    1  UNL1       -0.0025
     33 C         145.0008  139.6371  164.3849 C.ar    1  UNL1       -0.0003
     34 C         143.6644  139.4117  165.0277 C.ar    1  UNL1       -0.0000
     35 C         142.4702  140.1953  164.5698 C.ar    1  UNL1       -0.0003
     36 C         142.6123  141.2043  163.4690 C.ar    1  UNL1       -0.0025
@<TRIPOS>BOND
     1    20    21    3
     2    21    14    1
     3    14    15   ar
     4    15    16   ar
     5    16    17   ar
     6    17    13    1
     7    13    12    1
     8    12    11    1
     9    11    10    1
    10    10     1    1
    11     1     2    1
    12     2     3    1
    13     3     4    1
    14     4     5    1
    15     5    22    1
    16    22    23    1
    17    23    24    1
    18    24    25    1
    19    25    27    1
    20    27    28    2
    21    27    29    2
    22    27    30    1
    23    30    31    1
    24    31    32   ar
    25    32    33   ar
    26    33    34   ar
    27    34    35   ar
    28    35    36   ar
    29     5     6    1
    30     6     7    1
    31     7     8    1
    32     7     9    1
    33    17    18   ar
    34    18    19   ar
    35    19    14   ar
    36     8     1    1
    37     9     3    1
    38    36    31   ar
    39    25    26    1
@<TRIPOS>MOLECULE
*****
 36 39 0 0 0
SMALL
GASTEIGER

@<TRIPOS>ATOM
      1 N         138.6435  140.6948  164.6088 N.3     1  UNL1       -0.2684
      2 C         139.3153  141.8901  165.2169 C.3     1  UNL1        0.1035
      3 C         139.5320  143.1268  164.3963 C.3     1  UNL1        0.1470
      4 C         139.7488  144.3637  163.5757 C.3     1  UNL1        0.1035
      5 N         139.2938  144.4051  162.1470 N.3     1  UNL1       -0.2685
      6 C         138.6220  143.2097  161.5389 C.3     1  UNL1        0.1035
      7 C         138.4052  141.9729  162.3595 C.3     1  UNL1        0.1470
      8 C         138.1884  140.7362  163.1801 C.3     1  UNL1        0.1035
      9 O         139.0770  143.1682  162.9676 O.3     1  UNL1       -0.3530
     10 C         138.4266  139.4580  165.4294 C.3     1  UNL1        0.0761
     11 C         139.0210  139.3554  166.8028 C.3     1  UNL1        0.0646
     12 C         138.1267  139.3252  168.0067 C.3     1  UNL1        0.2068
     13 O         138.6981  139.5698  169.3718 O.3     1  UNL1       -0.4754
     14 C         142.6044  141.7592  169.8165 C.ar    1  UNL1        0.0686
     15 C         142.5489  140.2746  170.0237 C.ar    1  UNL1        0.0134
     16 C         141.2468  139.5448  169.8755 C.ar    1  UNL1        0.0376
     17 C         140.0002  140.2996  169.5200 C.ar    1  UNL1        0.1386
     18 C         140.0557  141.7841  169.3128 C.ar    1  UNL1        0.0376
     19 C         141.3578  142.5139  169.4610 C.ar    1  UNL1        0.0134
     20 N         145.2085  143.2188  170.1130 N.1     1  UNL1       -0.1908
     21 C         143.9064  142.4889  169.9647 C.1     1  UNL1        0.1004
     22 C         139.5106  145.6418  161.3263 C.3     1  UNL1        0.0737
     23 C         140.4696  145.6182  160.1732 C.3     1  UNL1        0.0361
     24 C         141.6942  144.7541  160.2337 C.3     1  UNL1        0.0925
     25 N         142.5789  144.7909  161.4444 N.3     1  UNL1       -0.1830
     26 H         141.9965  145.0923  162.2257 H       1  UNL1        0.1484
     27 S         143.2923  143.5489  161.8901 S.O2    1  UNL1        0.0450
     28 O         144.4516  144.3808  162.3527 O.2     1  UNL1       -0.1572
     29 O         142.1331  142.7170  161.4275 O.2     1  UNL1       -0.1572
     30 C         144.0057  142.3070  162.3357 C.3     1  UNL1        0.1952
     31 C         143.6854  141.6949  163.6672 C.ar    1  UNL1        0.0029
     32 C         143.8779  140.2229  163.8817 C.ar    1  UNL1       -0.0025
     33 C         143.5576  139.6108  165.2132 C.ar    1  UNL1       -0.0003
     34 C         143.0447  140.4707  166.3301 C.ar    1  UNL1       -0.0000
     35 C         142.8523  141.9427  166.1155 C.ar    1  UNL1       -0.0003
     36 C         143.1726  142.5548  164.7841 C.ar    1  UNL1       -0.0025
@<TRIPOS>BOND
     1    20    21    3
     2    21    14    1
     3    14    15   ar
     4    15    16   ar
     5    16    17   ar
     6    17    13    1
     7    13    12    1
     8    12    11    1
     9    11    10    1
    10    10     1    1
    11     1     2    1
    12     2     3    1
    13     3     4    1
    14     4     5    1
    15     5    22    1
    16    22    23    1
    17    23    24    1
    18    24    25    1
    19    25    27    1
    20    27    28    2
    21    27    29    2
    22    27    30    1
    23    30    31    1
    24    31    32   ar
    25    32    33   ar
    26    33    34   ar
    27    34    35   ar
    28    35    36   ar
    29     5     6    1
    30     6     7    1
    31     7     8    1
    32     7     9    1
    33    17    18   ar
    34    18    19   ar
    35    19    14   ar
    36     8     1    1
    37     9     3    1
    38    36    31   ar
    39    25    26    1
@<TRIPOS>MOLECULE
*****
 36 39 0 0 0
SMALL
GASTEIGER

@<TRIPOS>ATOM
      1 N         138.4760  139.1830  165.2691 N.3     1  UNL1       -0.2684
      2 C         137.8236  140.4223  164.7322 C.3     1  UNL1        0.1035
      3 C         137.7884  140.6708  163.2533 C.3     1  UNL1        0.1470
      4 C         137.7532  140.9193  161.7744 C.3     1  UNL1        0.1035
      5 N         138.3705  139.9285  160.8325 N.3     1  UNL1       -0.2685
      6 C         139.0230  138.6891  161.3695 C.3     1  UNL1        0.1035
      7 C         139.0581  138.4406  162.8484 C.3     1  UNL1        0.1470
      8 C         139.0933  138.1921  164.3272 C.3     1  UNL1        0.1035
      9 O         138.4057  139.6799  162.3114 O.3     1  UNL1       -0.3530
     10 C         138.5112  138.9344  166.7480 C.3     1  UNL1        0.0761
     11 C         139.1906  139.9149  167.6573 C.3     1  UNL1        0.0646
     12 C         140.6794  139.8669  167.8339 C.3     1  UNL1        0.2068
     13 O         141.5330  140.9845  167.3122 O.3     1  UNL1       -0.4754
     14 C         140.2827  143.2364  163.6222 C.ar    1  UNL1        0.0686
     15 C         139.9659  143.7879  164.9808 C.ar    1  UNL1        0.0134
     16 C         140.3827  143.0373  166.2107 C.ar    1  UNL1        0.0376
     17 C         141.1163  141.7351  166.0822 C.ar    1  UNL1        0.1386
     18 C         141.4330  141.1837  164.7237 C.ar    1  UNL1        0.0376
     19 C         141.0162  141.9344  163.4937 C.ar    1  UNL1        0.0134
     20 N         139.4491  144.7377  161.1623 N.1     1  UNL1       -0.1908
     21 C         139.8659  143.9870  162.3923 C.1     1  UNL1        0.1004
     22 C         138.3354  140.1770  159.3537 C.3     1  UNL1        0.0737
     23 C         139.1263  141.3070  158.7640 C.3     1  UNL1        0.0361
     24 C         140.5955  141.4205  159.0443 C.3     1  UNL1        0.0925
     25 N         141.1942  142.7545  159.3788 N.3     1  UNL1       -0.1830
     26 H         140.5552  143.2087  160.0313 H       1  UNL1        0.1484
     27 S         142.5625  142.8306  159.9889 S.O2    1  UNL1        0.0450
     28 O         142.6527  144.2781  159.6058 O.2     1  UNL1       -0.1572
     29 O         142.4724  141.3832  160.3720 O.2     1  UNL1       -0.1572
     30 C         143.9307  142.9069  160.5989 C.3     1  UNL1        0.1952
     31 C         144.0836  143.1768  162.0665 C.ar    1  UNL1        0.0029
     32 C         144.7515  142.1649  162.9496 C.ar    1  UNL1       -0.0025
     33 C         144.9044  142.4349  164.4171 C.ar    1  UNL1       -0.0003
     34 C         144.3894  143.7167  165.0016 C.ar    1  UNL1       -0.0000
     35 C         143.7215  144.7286  164.1185 C.ar    1  UNL1       -0.0003
     36 C         143.5686  144.4587  162.6509 C.ar    1  UNL1       -0.0025
@<TRIPOS>BOND
     1    20    21    3
     2    21    14    1
     3    14    15   ar
     4    15    16   ar
     5    16    17   ar
     6    17    13    1
     7    13    12    1
     8    12    11    1
     9    11    10    1
    10    10     1    1
    11     1     2    1
    12     2     3    1
    13     3     4    1
    14     4     5    1
    15     5    22    1
    16    22    23    1
    17    23    24    1
    18    24    25    1
    19    25    27    1
    20    27    28    2
    21    27    29    2
    22    27    30    1
    23    30    31    1
    24    31    32   ar
    25    32    33   ar
    26    33    34   ar
    27    34    35   ar
    28    35    36   ar
    29     5     6    1
    30     6     7    1
    31     7     8    1
    32     7     9    1
    33    17    18   ar
    34    18    19   ar
    35    19    14   ar
    36     8     1    1
    37     9     3    1
    38    36    31   ar
    39    25    26    1
@<TRIPOS>MOLECULE
*****
 36 39 0 0 0
SMALL
GASTEIGER

@<TRIPOS>ATOM
      1 N         143.8387  140.9170  163.2485 N.3     1  UNL1       -0.2684
      2 C         144.8821  141.6636  162.4715 C.3     1  UNL1        0.1035
      3 C         144.5451  142.2464  161.1311 C.3     1  UNL1        0.1470
      4 C         144.2081  142.8291  159.7906 C.3     1  UNL1        0.1035
      5 N         142.8277  142.6653  159.2271 N.3     1  UNL1       -0.2685
      6 C         141.7842  141.9186  160.0042 C.3     1  UNL1        0.1035
      7 C         142.1212  141.3358  161.3446 C.3     1  UNL1        0.1470
      8 C         142.4582  140.7531  162.6850 C.3     1  UNL1        0.1035
      9 O         143.1646  142.0825  160.5676 O.3     1  UNL1       -0.3530
     10 C         144.1757  140.3342  164.5890 C.3     1  UNL1        0.0761
     11 C         143.9228  138.8807  164.8599 C.3     1  UNL1        0.0646
     12 C         143.0404  138.4731  166.0024 C.3     1  UNL1        0.2068
     13 O         141.6308  138.9802  166.0792 O.3     1  UNL1       -0.4754
     14 C         140.6585  142.5436  168.6496 C.ar    1  UNL1        0.0686
     15 C         141.1067  141.2607  169.2846 C.ar    1  UNL1        0.0134
     16 C         141.4308  140.0729  168.4279 C.ar    1  UNL1        0.0376
     17 C         141.3067  140.1679  166.9360 C.ar    1  UNL1        0.1386
     18 C         140.8585  141.4508  166.3009 C.ar    1  UNL1        0.0376
     19 C         140.5344  142.6387  167.1578 C.ar    1  UNL1        0.0134
     20 N         140.0103  144.9192  170.3631 N.1     1  UNL1       -0.1908
     21 C         140.3344  143.7314  169.5063 C.1     1  UNL1        0.1004
     22 C         142.4906  143.2480  157.8867 C.3     1  UNL1        0.0737
     23 C         141.9828  144.6560  157.7872 C.3     1  UNL1        0.0361
     24 C         141.0490  145.1920  158.8315 C.3     1  UNL1        0.0925
     25 N         141.5651  145.5230  160.2004 N.3     1  UNL1       -0.1830
     26 H         141.9066  146.4834  160.1621 H       1  UNL1        0.1484
     27 S         140.6525  145.4349  161.3876 S.O2    1  UNL1        0.0450
     28 O         139.5654  146.1059  160.6017 O.2     1  UNL1       -0.1572
     29 O         141.7397  144.7638  162.1736 O.2     1  UNL1       -0.1572
     30 C         139.7399  145.3468  162.5748 C.3     1  UNL1        0.1952
     31 C         138.9632  144.0897  162.8321 C.ar    1  UNL1        0.0029
     32 C         138.6731  143.1434  161.7050 C.ar    1  UNL1       -0.0025
     33 C         137.8963  141.8862  161.9623 C.ar    1  UNL1       -0.0003
     34 C         137.4096  141.5754  163.3466 C.ar    1  UNL1       -0.0000
     35 C         137.6997  142.5217  164.4737 C.ar    1  UNL1       -0.0003
     36 C         138.4765  143.7788  164.2164 C.ar    1  UNL1       -0.0025
@<TRIPOS>BOND
     1    20    21    3
     2    21    14    1
     3    14    15   ar
     4    15    16   ar
     5    16    17   ar
     6    17    13    1
     7    13    12    1
     8    12    11    1
     9    11    10    1
    10    10     1    1
    11     1     2    1
    12     2     3    1
    13     3     4    1
    14     4     5    1
    15     5    22    1
    16    22    23    1
    17    23    24    1
    18    24    25    1
    19    25    27    1
    20    27    28    2
    21    27    29    2
    22    27    30    1
    23    30    31    1
    24    31    32   ar
    25    32    33   ar
    26    33    34   ar
    27    34    35   ar
    28    35    36   ar
    29     5     6    1
    30     6     7    1
    31     7     8    1
    32     7     9    1
    33    17    18   ar
    34    18    19   ar
    35    19    14   ar
    36     8     1    1
    37     9     3    1
    38    36    31   ar
    39    25    26    1
@<TRIPOS>MOLECULE
*****
 36 39 0 0 0
SMALL
GASTEIGER

@<TRIPOS>ATOM
      1 N         138.4692  140.8966  164.8544 N.3     1  UNL1       -0.2684
      2 C         139.2632  142.0044  165.4807 C.3     1  UNL1        0.1035
      3 C         139.4863  143.2840  164.7307 C.3     1  UNL1        0.1470
      4 C         139.7094  144.5638  163.9806 C.3     1  UNL1        0.1035
      5 N         139.1384  144.7356  162.6042 N.3     1  UNL1       -0.2685
      6 C         138.3444  143.6278  161.9779 C.3     1  UNL1        0.1035
      7 C         138.1213  142.3481  162.7280 C.3     1  UNL1        0.1470
      8 C         137.8982  141.0685  163.4781 C.3     1  UNL1        0.1035
      9 O         138.9153  143.4559  163.3543 O.3     1  UNL1       -0.3530
     10 C         138.2461  139.6169  165.6045 C.3     1  UNL1        0.0761
     11 C         139.4019  138.9196  166.2587 C.3     1  UNL1        0.0646
     12 C         140.5183  138.3706  165.4206 C.3     1  UNL1        0.2068
     13 O         141.9423  138.6950  165.7627 O.3     1  UNL1       -0.4754
     14 C         142.8536  141.7760  168.9133 C.ar    1  UNL1        0.0686
     15 C         142.8160  142.1710  167.4667 C.ar    1  UNL1        0.0134
     16 C         142.5122  141.1440  166.4165 C.ar    1  UNL1        0.0376
     17 C         142.2461  139.7220  166.8129 C.ar    1  UNL1        0.1386
     18 C         142.2837  139.3270  168.2595 C.ar    1  UNL1        0.0376
     19 C         142.5875  140.3541  169.3097 C.ar    1  UNL1        0.0134
     20 N         143.4612  143.8300  171.0138 N.1     1  UNL1       -0.1908
     21 C         143.1574  142.8030  169.9635 C.1     1  UNL1        0.1004
     22 C         139.3615  146.0153  161.8541 C.3     1  UNL1        0.0737
     23 C         140.1003  146.0005  160.5487 C.3     1  UNL1        0.0361
     24 C         141.2040  145.0101  160.3227 C.3     1  UNL1        0.0925
     25 N         142.1983  144.7340  161.4112 N.3     1  UNL1       -0.1830
     26 H         141.6638  144.4622  162.2363 H       1  UNL1        0.1484
     27 S         143.2539  143.6865  161.2148 S.O2    1  UNL1        0.0450
     28 O         144.1408  144.3965  162.1942 O.2     1  UNL1       -0.1572
     29 O         142.3671  142.9764  160.2354 O.2     1  UNL1       -0.1572
     30 C         144.3095  142.6390  161.0183 C.3     1  UNL1        0.1952
     31 C         144.4699  141.5380  162.0243 C.ar    1  UNL1        0.0029
     32 C         145.3988  141.7154  163.1886 C.ar    1  UNL1       -0.0025
     33 C         145.5592  140.6144  164.1946 C.ar    1  UNL1       -0.0003
     34 C         144.7908  139.3360  164.0363 C.ar    1  UNL1       -0.0000
     35 C         143.8620  139.1586  162.8720 C.ar    1  UNL1       -0.0003
     36 C         143.7015  140.2596  161.8660 C.ar    1  UNL1       -0.0025
@<TRIPOS>BOND
     1    20    21    3
     2    21    14    1
     3    14    15   ar
     4    15    16   ar
     5    16    17   ar
     6    17    13    1
     7    13    12    1
     8    12    11    1
     9    11    10    1
    10    10     1    1
    11     1     2    1
    12     2     3    1
    13     3     4    1
    14     4     5    1
    15     5    22    1
    16    22    23    1
    17    23    24    1
    18    24    25    1
    19    25    27    1
    20    27    28    2
    21    27    29    2
    22    27    30    1
    23    30    31    1
    24    31    32   ar
    25    32    33   ar
    26    33    34   ar
    27    34    35   ar
    28    35    36   ar
    29     5     6    1
    30     6     7    1
    31     7     8    1
    32     7     9    1
    33    17    18   ar
    34    18    19   ar
    35    19    14   ar
    36     8     1    1
    37     9     3    1
    38    36    31   ar
    39    25    26    1
@<TRIPOS>MOLECULE
*****
 36 39 0 0 0
SMALL
GASTEIGER

@<TRIPOS>ATOM
      1 N         140.9809  142.7977  166.2259 N.3     1  UNL1       -0.2684
      2 C         139.6731  143.4050  165.8128 C.3     1  UNL1        0.1035
      3 C         139.5464  144.0764  164.4775 C.3     1  UNL1        0.1470
      4 C         139.4198  144.7478  163.1421 C.3     1  UNL1        0.1035
      5 N         140.6010  144.8119  162.2198 N.3     1  UNL1       -0.2685
      6 C         141.9089  144.2045  162.6329 C.3     1  UNL1        0.1035
      7 C         142.0355  143.5331  163.9682 C.3     1  UNL1        0.1470
      8 C         142.1621  142.8618  165.3036 C.3     1  UNL1        0.1035
      9 O         140.7277  144.1404  163.5552 O.3     1  UNL1       -0.3530
     10 C         141.1076  142.1263  167.5613 C.3     1  UNL1        0.0761
     11 C         142.3253  141.3096  167.8776 C.3     1  UNL1        0.0646
     12 C         142.2328  139.8132  167.9272 C.3     1  UNL1        0.2068
     13 O         143.2872  138.9743  167.2681 O.3     1  UNL1       -0.4754
     14 C         143.5514  138.8103  162.7789 C.ar    1  UNL1        0.0686
     15 C         144.6794  139.3957  163.5757 C.ar    1  UNL1        0.0134
     16 C         144.5914  139.4504  165.0720 C.ar    1  UNL1        0.0376
     17 C         143.3753  138.9196  165.7717 C.ar    1  UNL1        0.1386
     18 C         142.2473  138.3342  164.9750 C.ar    1  UNL1        0.0376
     19 C         142.3353  138.2795  163.4785 C.ar    1  UNL1        0.0134
     20 N         143.7275  138.7008  159.7860 N.1     1  UNL1       -0.1908
     21 C         143.6394  138.7556  161.2825 C.1     1  UNL1        0.1004
     22 C         140.4743  145.4833  160.8845 C.3     1  UNL1        0.0737
     23 C         140.2567  144.6607  159.6490 C.3     1  UNL1        0.0361
     24 C         139.5283  143.3525  159.7377 C.3     1  UNL1        0.0925
     25 N         140.0858  142.2389  160.5736 N.3     1  UNL1       -0.1830
     26 H         140.4832  142.6683  161.4091 H       1  UNL1        0.1484
     27 S         139.1894  141.1306  161.0409 S.O2    1  UNL1        0.0450
     28 O         140.3358  140.1672  160.9551 O.2     1  UNL1       -0.1572
     29 O         138.0430  142.0941  161.1267 O.2     1  UNL1       -0.1572
     30 C         138.2930  140.0225  161.5082 C.3     1  UNL1        0.1952
     31 C         138.3953  139.5187  162.9174 C.ar    1  UNL1        0.0029
     32 C         138.2229  140.4666  164.0671 C.ar    1  UNL1       -0.0025
     33 C         138.3252  139.9629  165.4763 C.ar    1  UNL1       -0.0003
     34 C         138.6000  138.5113  165.7358 C.ar    1  UNL1       -0.0000
     35 C         138.7724  137.5634  164.5861 C.ar    1  UNL1       -0.0003
     36 C         138.6701  138.0672  163.1769 C.ar    1  UNL1       -0.0025
@<TRIPOS>BOND
     1    20    21    3
     2    21    14    1
     3    14    15   ar
     4    15    16   ar
     5    16    17   ar
     6    17    13    1
     7    13    12    1
     8    12    11    1
     9    11    10    1
    10    10     1    1
    11     1     2    1
    12     2     3    1
    13     3     4    1
    14     4     5    1
    15     5    22    1
    16    22    23    1
    17    23    24    1
    18    24    25    1
    19    25    27    1
    20    27    28    2
    21    27    29    2
    22    27    30    1
    23    30    31    1
    24    31    32   ar
    25    32    33   ar
    26    33    34   ar
    27    34    35   ar
    28    35    36   ar
    29     5     6    1
    30     6     7    1
    31     7     8    1
    32     7     9    1
    33    17    18   ar
    34    18    19   ar
    35    19    14   ar
    36     8     1    1
    37     9     3    1
    38    36    31   ar
    39    25    26    1
@<TRIPOS>MOLECULE
*****
 36 39 0 0 0
SMALL
GASTEIGER

@<TRIPOS>ATOM
      1 N         141.8596  140.4837  166.7182 N.3     1  UNL1       -0.2684
      2 C         141.3772  141.7113  166.0039 C.3     1  UNL1        0.1035
      3 C         141.4084  141.7679  164.5053 C.3     1  UNL1        0.1470
      4 C         141.4396  141.8246  163.0066 C.3     1  UNL1        0.1035
      5 N         141.9533  140.6536  162.2224 N.3     1  UNL1       -0.2685
      6 C         142.4357  139.4260  162.9368 C.3     1  UNL1        0.1035
      7 C         142.4045  139.3694  164.4354 C.3     1  UNL1        0.1470
      8 C         142.3733  139.3128  165.9339 C.3     1  UNL1        0.1035
      9 O         141.9221  140.5970  163.7210 O.3     1  UNL1       -0.3530
     10 C         141.8285  140.4271  168.2168 C.3     1  UNL1        0.0761
     11 C         140.6557  139.8104  168.9198 C.3     1  UNL1        0.0646
     12 C         139.2608  140.1116  168.4574 C.3     1  UNL1        0.2068
     13 O         138.4670  139.0630  167.7361 O.3     1  UNL1       -0.4754
     14 C         138.8136  138.6556  163.2680 C.ar    1  UNL1        0.0686
     15 C         139.1454  137.4925  164.1552 C.ar    1  UNL1        0.0134
     16 C         139.0298  137.6283  165.6445 C.ar    1  UNL1        0.0376
     17 C         138.5825  138.9272  166.2468 C.ar    1  UNL1        0.1386
     18 C         138.2507  140.0904  165.3596 C.ar    1  UNL1        0.0376
     19 C         138.3663  139.9545  163.8702 C.ar    1  UNL1        0.0134
     20 N         139.0447  138.3840  160.2893 N.1     1  UNL1       -0.1908
     21 C         138.9291  138.5198  161.7787 C.1     1  UNL1        0.1004
     22 C         141.9845  140.7102  160.7238 C.3     1  UNL1        0.0737
     23 C         143.1188  141.3971  160.0226 C.3     1  UNL1        0.0361
     24 C         143.2038  142.8947  160.0226 C.3     1  UNL1        0.0925
     25 N         142.0987  143.7085  159.4175 N.3     1  UNL1       -0.1830
     26 H         141.4586  143.0510  158.9722 H       1  UNL1        0.1484
     27 S         141.2650  144.6040  160.2854 S.O2    1  UNL1        0.0450
     28 O         142.3614  144.6331  161.3086 O.2     1  UNL1       -0.1572
     29 O         140.1686  144.5750  159.2621 O.2     1  UNL1       -0.1572
     30 C         140.4313  145.4995  161.1532 C.3     1  UNL1        0.1952
     31 C         139.6518  144.9216  162.2970 C.ar    1  UNL1        0.0029
     32 C         138.5179  143.9766  162.0303 C.ar    1  UNL1       -0.0025
     33 C         137.7383  143.3987  163.1741 C.ar    1  UNL1       -0.0003
     34 C         138.0927  143.7657  164.5846 C.ar    1  UNL1       -0.0000
     35 C         139.2266  144.7107  164.8513 C.ar    1  UNL1       -0.0003
     36 C         140.0062  145.2886  163.7075 C.ar    1  UNL1       -0.0025
@<TRIPOS>BOND
     1    20    21    3
     2    21    14    1
     3    14    15   ar
     4    15    16   ar
     5    16    17   ar
     6    17    13    1
     7    13    12    1
     8    12    11    1
     9    11    10    1
    10    10     1    1
    11     1     2    1
    12     2     3    1
    13     3     4    1
    14     4     5    1
    15     5    22    1
    16    22    23    1
    17    23    24    1
    18    24    25    1
    19    25    27    1
    20    27    28    2
    21    27    29    2
    22    27    30    1
    23    30    31    1
    24    31    32   ar
    25    32    33   ar
    26    33    34   ar
    27    34    35   ar
    28    35    36   ar
    29     5     6    1
    30     6     7    1
    31     7     8    1
    32     7     9    1
    33    17    18   ar
    34    18    19   ar
    35    19    14   ar
    36     8     1    1
    37     9     3    1
    38    36    31   ar
    39    25    26    1
@<TRIPOS>MOLECULE
*****
 36 39 0 0 0
SMALL
GASTEIGER

@<TRIPOS>ATOM
      1 N         143.3467  144.1383  163.5687 N.3     1  UNL1       -0.2684
      2 C         142.0885  144.9550  163.5721 C.3     1  UNL1        0.1035
      3 C         141.3034  145.1281  162.3058 C.3     1  UNL1        0.1470
      4 C         140.5182  145.3012  161.0394 C.3     1  UNL1        0.1035
      5 N         140.9911  144.6575  159.7698 N.3     1  UNL1       -0.2685
      6 C         142.2493  143.8407  159.7665 C.3     1  UNL1        0.1035
      7 C         143.0345  143.6677  161.0328 C.3     1  UNL1        0.1470
      8 C         143.8196  143.4946  162.2991 C.3     1  UNL1        0.1035
      9 O         141.7764  144.4844  161.0361 O.3     1  UNL1       -0.3530
     10 C         144.1319  143.9652  164.8350 C.3     1  UNL1        0.0761
     11 C         144.0271  142.6875  165.6138 C.3     1  UNL1        0.0646
     12 C         142.8263  142.4307  166.4755 C.3     1  UNL1        0.2068
     13 O         141.8252  141.3878  166.0753 O.3     1  UNL1       -0.4754
     14 C         142.4313  139.0200  162.2969 C.ar    1  UNL1        0.0686
     15 C         142.9601  138.5001  163.6008 C.ar    1  UNL1        0.0134
     16 C         142.7581  139.2894  164.8602 C.ar    1  UNL1        0.0376
     17 C         142.0272  140.5986  164.8158 C.ar    1  UNL1        0.1386
     18 C         141.4984  141.1184  163.5120 C.ar    1  UNL1        0.0376
     19 C         141.7004  140.3291  162.2525 C.ar    1  UNL1        0.0134
     20 N         142.8353  137.4414  159.7780 N.1     1  UNL1       -0.1908
     21 C         142.6333  138.2307  161.0375 C.1     1  UNL1        0.1004
     22 C         140.2060  144.8306  158.5035 C.3     1  UNL1        0.0737
     23 C         139.5592  143.6432  157.8538 C.3     1  UNL1        0.0361
     24 C         138.6786  142.7346  158.6593 C.3     1  UNL1        0.0925
     25 N         139.1443  142.2262  159.9915 N.3     1  UNL1       -0.1830
     26 H         139.2131  143.0359  160.6080 H       1  UNL1        0.1484
     27 S         138.3401  141.1924  160.7225 S.O2    1  UNL1        0.0450
     28 O         139.0270  140.1087  159.9456 O.2     1  UNL1       -0.1572
     29 O         137.6532  142.2760  161.4995 O.2     1  UNL1       -0.1572
     30 C         137.5359  140.1585  161.4536 C.3     1  UNL1        0.1952
     31 C         138.0816  139.5274  162.7001 C.ar    1  UNL1        0.0029
     32 C         137.9656  140.2407  164.0145 C.ar    1  UNL1       -0.0025
     33 C         138.5112  139.6096  165.2611 C.ar    1  UNL1       -0.0003
     34 C         139.1729  138.2651  165.1933 C.ar    1  UNL1       -0.0000
     35 C         139.2889  137.5518  163.8789 C.ar    1  UNL1       -0.0003
     36 C         138.7432  138.1829  162.6323 C.ar    1  UNL1       -0.0025
@<TRIPOS>BOND
     1    20    21    3
     2    21    14    1
     3    14    15   ar
     4    15    16   ar
     5    16    17   ar
     6    17    13    1
     7    13    12    1
     8    12    11    1
     9    11    10    1
    10    10     1    1
    11     1     2    1
    12     2     3    1
    13     3     4    1
    14     4     5    1
    15     5    22    1
    16    22    23    1
    17    23    24    1
    18    24    25    1
    19    25    27    1
    20    27    28    2
    21    27    29    2
    22    27    30    1
    23    30    31    1
    24    31    32   ar
    25    32    33   ar
    26    33    34   ar
    27    34    35   ar
    28    35    36   ar
    29     5     6    1
    30     6     7    1
    31     7     8    1
    32     7     9    1
    33    17    18   ar
    34    18    19   ar
    35    19    14   ar
    36     8     1    1
    37     9     3    1
    38    36    31   ar
    39    25    26    1
