@<TRIPOS>MOLECULE
*****
 39 41 0 0 0
SMALL
GASTEIGER

@<TRIPOS>ATOM
      1 C         143.0446  139.3756  165.3758 C.3     0  UNK0        0.1497
      2 N         144.0594  140.2174  164.6605 N.am    0  UNK0       -0.2826
      3 C         143.6119  141.3585  163.7958 C.2     0  UNK0        0.3013
      4 O         142.1496  141.6578  163.6465 O.2     0  UNK0       -0.2528
      5 N         144.6266  142.2003  163.0805 N.am    1  LYS1       -0.2857
      6 H         145.0191  140.0209  164.7585 H       0  UNK0        0.1514
      7 H         145.5863  142.0038  163.1784 H       1  LYS1        0.1513
      8 CA        144.1791  143.3413  162.2158 C.3     1  LYS1        0.1095
      9 C         143.7994  143.0948  160.7858 C.2     1  LYS1        0.0682
     10 O         144.4002  141.9414  160.0385 O.co2   1  LYS1       -0.5475
     11 OXT       142.8188  144.0017  160.1031 O.co2   1  LYS1       -0.5475
     12 CB        144.1112  144.7291  162.7813 C.3     1  LYS1        0.0254
     13 CG        143.1345  145.0466  163.8745 C.3     1  LYS1        0.0035
     14 CD        141.7311  145.4511  163.5322 C.3     1  LYS1        0.0169
     15 CE        140.5716  144.6720  164.0786 C.3     1  LYS1        0.0651
     16 NZ        140.7950  143.6487  165.1523 N.3     1  LYS1       -0.3211
     17 HZ1       141.3555  142.8821  164.7800 H       1  LYS1        0.1189
     18 HZ2       139.8956  143.2886  165.4711 H       1  LYS1        0.1189
     19 N         141.2681  140.7747  166.6551 N.am    0  UNK0       -0.3046
     20 C         142.4512  139.8528  166.6682 C.2     0  UNK0        0.2403
     21 O         143.0410  139.4079  167.9737 O.2     0  UNK0       -0.2733
     22 H         140.8810  141.0666  165.7982 H       0  UNK0        0.1494
     23 C         138.3327  140.3506  170.4219 C.3     0  UNK0        0.0001
     24 C         139.3324  141.3717  169.9660 C.3     0  UNK0        0.0016
     25 C         139.6779  142.6462  170.6774 C.3     0  UNK0        0.0001
     26 C         140.7211  143.3598  169.8696 C.3     0  UNK0        0.0016
     27 C         141.0203  142.5263  168.6589 C.3     0  UNK0        0.0180
     28 C         140.6747  141.2518  167.9474 C.3     0  UNK0        0.0715
     29 C         139.6315  140.5382  168.7552 C.3     0  UNK0        0.0196
     30 C         140.1619  141.2976  168.7184 C.3     0  UNK0        0.0016
     31 C         140.6301  140.6541  167.4469 C.3     0  UNK0        0.0001
     32 C         139.6506  139.9840  168.2054 C.3     0  UNK0        0.0001
     33 C         142.6233  138.0566  164.7988 C.3     0  UNK0        0.0290
     34 C         141.3162  137.9391  164.0723 C.3     0  UNK0        0.0021
     35 C         141.2793  138.0306  162.5755 C.3     0  UNK0        0.0001
     36 C         139.9722  137.9130  161.8490 C.3     0  UNK0        0.0000
     37 C         138.7021  137.7039  162.6193 C.3     0  UNK0        0.0000
     38 C         138.7392  137.6124  164.1161 C.3     0  UNK0        0.0000
     39 C         140.0462  137.7299  164.8426 C.3     0  UNK0        0.0001
@<TRIPOS>UNITY_ATOM_ATTR
10 1
charge -1
@<TRIPOS>BOND
     1    23    24    1
     2    24    25    1
     3    25    26    1
     4    26    27    1
     5    27    28    1
     6    28    19    1
     7    19    20   am
     8    20    21    2
     9    20     1    1
    10     1    33    1
    11    33    34    1
    12    34    35    1
    13    35    36    1
    14    36    37    1
    15    37    38    1
    16    38    39    1
    17     1     2    1
    18     2     3   am
    19     3     4    2
    20     3     5   am
    21     5     8    1
    22     8    12    1
    23    12    13    1
    24    13    14    1
    25    14    15    1
    26    15    16    1
    27     8     9    1
    28     9    10   ar
    29     9    11   ar
    30    28    29    1
    31    27    30    1
    32    30    31    1
    33    30    32    1
    34    29    24    1
    35    30    24    1
    36    39    34    1
    37    19    22    1
    38     2     6    1
    39     5     7    1
    40    16    17    1
    41    16    18    1
@<TRIPOS>MOLECULE
*****
 39 41 0 0 0
SMALL
GASTEIGER

@<TRIPOS>ATOM
      1 C         138.5749  139.0433  165.6206 C.3     0  UNK0        0.1497
      2 N         137.6410  139.9457  164.8700 N.am    0  UNK0       -0.2826
      3 C         138.1853  141.0998  164.0815 C.2     0  UNK0        0.3013
      4 O         139.6635  141.3516  164.0436 O.2     0  UNK0       -0.2528
      5 N         137.2513  142.0022  163.3309 N.am    1  LYS1       -0.2857
      6 H         136.6708  139.7804  164.8949 H       0  UNK0        0.1514
      7 H         136.2811  141.8370  163.3557 H       1  LYS1        0.1513
      8 CA        137.7956  143.1563  162.5424 C.3     1  LYS1        0.1095
      9 C         138.3320  142.9332  161.1594 C.2     1  LYS1        0.0682
     10 O         138.1561  141.6012  160.4925 O.co2   1  LYS1       -0.5475
     11 OXT       139.0443  144.0423  160.4433 O.co2   1  LYS1       -0.5475
     12 CB        137.8036  144.5335  163.1368 C.3     1  LYS1        0.0254
     13 CG        138.7938  144.8823  164.2080 C.3     1  LYS1        0.0035
     14 CD        140.2597  144.6676  163.9731 C.3     1  LYS1        0.0169
     15 CE        140.9716  145.4511  162.9104 C.3     1  LYS1        0.0651
     16 NZ        140.2423  146.5193  162.1509 N.3     1  LYS1       -0.3211
     17 HZ1       139.5077  146.0934  161.5857 H       1  LYS1        0.1189
     18 HZ2       140.8969  147.0114  161.5428 H       1  LYS1        0.1189
     19 N         140.2966  140.2349  167.1588 N.am    0  UNK0       -0.3046
     20 C         139.0451  139.4248  166.9930 C.2     0  UNK0        0.2403
     21 O         138.2637  138.9961  168.1996 O.2     0  UNK0       -0.2733
     22 H         140.8094  140.5162  166.3669 H       0  UNK0        0.1494
     23 C         143.2196  139.8342  170.9379 C.3     0  UNK0        0.0001
     24 C         142.0361  140.6910  170.5986 C.3     0  UNK0        0.0016
     25 C         141.4293  141.7444  171.4773 C.3     0  UNK0        0.0001
     26 C         140.2698  142.3492  170.7428 C.3     0  UNK0        0.0016
     27 C         140.1599  141.6697  169.4100 C.3     0  UNK0        0.0180
     28 C         140.7667  140.6164  168.5312 C.3     0  UNK0        0.0715
     29 C         141.9263  140.0114  169.2658 C.3     0  UNK0        0.0196
     30 C         141.2516  140.6449  169.3209 C.3     0  UNK0        0.0016
     31 C         140.9380  140.1244  167.9495 C.3     0  UNK0        0.0001
     32 C         142.0267  139.5565  168.6391 C.3     0  UNK0        0.0001
     33 C         139.0388  137.7594  164.9989 C.3     0  UNK0        0.0290
     34 C         139.9542  137.7892  163.8110 C.3     0  UNK0        0.0021
     35 C         141.4387  137.6971  164.0057 C.3     0  UNK0        0.0001
     36 C         142.3542  137.7268  162.8178 C.3     0  UNK0        0.0000
     37 C         141.7852  137.8487  161.4353 C.3     0  UNK0        0.0000
     38 C         140.3007  137.9407  161.2406 C.3     0  UNK0        0.0000
     39 C         139.3853  137.9110  162.4285 C.3     0  UNK0        0.0001
@<TRIPOS>UNITY_ATOM_ATTR
10 1
charge -1
@<TRIPOS>BOND
     1    23    24    1
     2    24    25    1
     3    25    26    1
     4    26    27    1
     5    27    28    1
     6    28    19    1
     7    19    20   am
     8    20    21    2
     9    20     1    1
    10     1    33    1
    11    33    34    1
    12    34    35    1
    13    35    36    1
    14    36    37    1
    15    37    38    1
    16    38    39    1
    17     1     2    1
    18     2     3   am
    19     3     4    2
    20     3     5   am
    21     5     8    1
    22     8    12    1
    23    12    13    1
    24    13    14    1
    25    14    15    1
    26    15    16    1
    27     8     9    1
    28     9    10   ar
    29     9    11   ar
    30    28    29    1
    31    27    30    1
    32    30    31    1
    33    30    32    1
    34    29    24    1
    35    30    24    1
    36    39    34    1
    37    19    22    1
    38     2     6    1
    39     5     7    1
    40    16    17    1
    41    16    18    1
@<TRIPOS>MOLECULE
*****
 39 41 0 0 0
SMALL
GASTEIGER

@<TRIPOS>ATOM
      1 C         143.9526  142.8099  164.9100 C.3     0  UNK0        0.1497
      2 N         143.3822  144.0575  164.3034 N.am    0  UNK0       -0.2826
      3 C         142.1321  143.9861  163.4774 C.2     0  UNK0        0.3013
      4 O         141.4524  142.6670  163.2581 O.2     0  UNK0       -0.2528
      5 N         141.5616  145.2337  162.8709 N.am    1  LYS1       -0.2857
      6 H         143.8283  144.9233  164.4474 H       0  UNK0        0.1514
      7 H         142.0077  146.0995  163.0148 H       1  LYS1        0.1513
      8 CA        140.3116  145.1623  162.0449 C.3     1  LYS1        0.1095
      9 C         140.4013  144.9123  160.5686 C.2     1  LYS1        0.0682
     10 O         141.5517  145.4677  159.7825 O.co2   1  LYS1       -0.5475
     11 OXT       139.3406  144.1068  159.8785 O.co2   1  LYS1       -0.5475
     12 CB        138.9717  145.3408  162.6953 C.3     1  LYS1        0.0254
     13 CG        138.7148  144.7617  164.0549 C.3     1  LYS1        0.0035
     14 CD        138.0226  143.4376  164.1876 C.3     1  LYS1        0.0169
     15 CE        137.6516  142.6589  162.9605 C.3     1  LYS1        0.0651
     16 NZ        136.8235  141.4143  163.0839 N.3     1  LYS1       -0.3211
     17 HZ1       137.3539  140.7013  163.5846 H       1  LYS1        0.1189
     18 HZ2       136.5858  141.0705  162.1535 H       1  LYS1        0.1189
     19 N         142.4232  141.2182  166.2801 N.am    0  UNK0       -0.3046
     20 C         143.4424  142.3176  166.2319 C.2     0  UNK0        0.2403
     21 O         143.9515  142.9248  167.5056 O.2     0  UNK0       -0.2733
     22 H         142.0891  140.8196  165.4442 H       0  UNK0        0.1494
     23 C         139.1875  141.0433  169.8136 C.3     0  UNK0        0.0001
     24 C         140.5137  140.3911  169.5566 C.3     0  UNK0        0.0016
     25 C         141.2077  139.4176  170.4624 C.3     0  UNK0        0.0001
     26 C         142.5016  139.0229  169.8143 C.3     0  UNK0        0.0016
     27 C         142.6071  139.7524  168.5079 C.3     0  UNK0        0.0180
     28 C         141.9131  140.7259  167.6020 C.3     0  UNK0        0.0715
     29 C         140.6191  141.1207  168.2502 C.3     0  UNK0        0.0196
     30 C         141.3785  140.5980  168.3486 C.3     0  UNK0        0.0016
     31 C         141.7127  141.2032  167.0174 C.3     0  UNK0        0.0001
     32 C         140.4979  141.5739  167.6260 C.3     0  UNK0        0.0001
     33 C         145.0333  142.0545  164.1947 C.3     0  UNK0        0.0290
     34 C         144.6740  141.0470  163.1431 C.3     0  UNK0        0.0021
     35 C         144.4679  139.6099  163.5206 C.3     0  UNK0        0.0001
     36 C         144.1086  138.6024  162.4690 C.3     0  UNK0        0.0000
     37 C         143.9554  139.0319  161.0400 C.3     0  UNK0        0.0000
     38 C         144.1615  140.4690  160.6626 C.3     0  UNK0        0.0000
     39 C         144.5208  141.4765  161.7142 C.3     0  UNK0        0.0001
@<TRIPOS>UNITY_ATOM_ATTR
10 1
charge -1
@<TRIPOS>BOND
     1    23    24    1
     2    24    25    1
     3    25    26    1
     4    26    27    1
     5    27    28    1
     6    28    19    1
     7    19    20   am
     8    20    21    2
     9    20     1    1
    10     1    33    1
    11    33    34    1
    12    34    35    1
    13    35    36    1
    14    36    37    1
    15    37    38    1
    16    38    39    1
    17     1     2    1
    18     2     3   am
    19     3     4    2
    20     3     5   am
    21     5     8    1
    22     8    12    1
    23    12    13    1
    24    13    14    1
    25    14    15    1
    26    15    16    1
    27     8     9    1
    28     9    10   ar
    29     9    11   ar
    30    28    29    1
    31    27    30    1
    32    30    31    1
    33    30    32    1
    34    29    24    1
    35    30    24    1
    36    39    34    1
    37    19    22    1
    38     2     6    1
    39     5     7    1
    40    16    17    1
    41    16    18    1
@<TRIPOS>MOLECULE
*****
 39 41 0 0 0
SMALL
GASTEIGER

@<TRIPOS>ATOM
      1 C         143.5487  142.1049  164.8994 C.3     0  UNK0        0.1497
      2 N         143.5927  143.2897  163.9806 N.am    0  UNK0       -0.2826
      3 C         142.3899  143.6464  163.1584 C.2     0  UNK0        0.3013
      4 O         141.1430  142.8182  163.2549 O.2     0  UNK0       -0.2528
      5 N         142.4340  144.8313  162.2396 N.am    1  LYS1       -0.2857
      6 H         144.4111  143.8333  163.9173 H       0  UNK0        0.1514
      7 H         143.2523  145.3749  162.1763 H       1  LYS1        0.1513
      8 CA        141.2312  145.1879  161.4175 C.3     1  LYS1        0.1095
      9 C         141.1746  144.8084  159.9673 C.2     1  LYS1        0.0682
     10 O         142.4222  144.3754  159.2562 O.co2   1  LYS1       -0.5475
     11 OXT       139.8702  144.8620  159.2284 O.co2   1  LYS1       -0.5475
     12 CB        140.0849  145.9240  162.0454 C.3     1  LYS1        0.0254
     13 CG        138.9230  145.1615  162.6099 C.3     1  LYS1        0.0035
     14 CD        138.8232  144.9333  164.0891 C.3     1  LYS1        0.0169
     15 CE        137.9881  143.8058  164.6194 C.3     1  LYS1        0.0651
     16 NZ        138.6024  142.4544  164.8347 N.3     1  LYS1       -0.3211
     17 HZ1       138.8742  142.0573  163.9354 H       1  LYS1        0.1189
     18 HZ2       137.9243  141.8408  165.2864 H       1  LYS1        0.1189
     19 N         141.4600  141.9117  166.4324 N.am    0  UNK0       -0.3046
     20 C         142.9151  142.2288  166.2533 C.2     0  UNK0        0.2403
     21 O         143.7367  142.6700  167.4283 O.2     0  UNK0       -0.2733
     22 H         140.9208  141.6221  165.6613 H       0  UNK0        0.1494
     23 C         139.0208  140.1855  170.1816 C.3     0  UNK0        0.0001
     24 C         139.6327  141.5100  169.8332 C.3     0  UNK0        0.0016
     25 C         139.6144  142.7420  170.6886 C.3     0  UNK0        0.0001
     26 C         140.3408  143.8283  169.9522 C.3     0  UNK0        0.0016
     27 C         140.8081  143.2677  168.6418 C.3     0  UNK0        0.0180
     28 C         140.8265  142.0356  167.7864 C.3     0  UNK0        0.0715
     29 C         140.1000  140.9492  168.5227 C.3     0  UNK0        0.0196
     30 C         140.3705  141.8348  168.5682 C.3     0  UNK0        0.0016
     31 C         140.9370  141.5126  167.2172 C.3     0  UNK0        0.0001
     32 C         140.2549  140.4926  167.9085 C.3     0  UNK0        0.0001
     33 C         144.1382  140.7960  164.4642 C.3     0  UNK0        0.0290
     34 C         143.2384  139.6561  164.0886 C.3     0  UNK0        0.0021
     35 C         142.9311  139.3872  162.6452 C.3     0  UNK0        0.0001
     36 C         142.0313  138.2474  162.2696 C.3     0  UNK0        0.0000
     37 C         141.4387  137.3764  163.3375 C.3     0  UNK0        0.0000
     38 C         141.7460  137.6452  164.7808 C.3     0  UNK0        0.0000
     39 C         142.6458  138.7851  165.1564 C.3     0  UNK0        0.0001
@<TRIPOS>UNITY_ATOM_ATTR
10 1
charge -1
@<TRIPOS>BOND
     1    23    24    1
     2    24    25    1
     3    25    26    1
     4    26    27    1
     5    27    28    1
     6    28    19    1
     7    19    20   am
     8    20    21    2
     9    20     1    1
    10     1    33    1
    11    33    34    1
    12    34    35    1
    13    35    36    1
    14    36    37    1
    15    37    38    1
    16    38    39    1
    17     1     2    1
    18     2     3   am
    19     3     4    2
    20     3     5   am
    21     5     8    1
    22     8    12    1
    23    12    13    1
    24    13    14    1
    25    14    15    1
    26    15    16    1
    27     8     9    1
    28     9    10   ar
    29     9    11   ar
    30    28    29    1
    31    27    30    1
    32    30    31    1
    33    30    32    1
    34    29    24    1
    35    30    24    1
    36    39    34    1
    37    19    22    1
    38     2     6    1
    39     5     7    1
    40    16    17    1
    41    16    18    1
@<TRIPOS>MOLECULE
*****
 39 41 0 0 0
SMALL
GASTEIGER

@<TRIPOS>ATOM
      1 C         142.9315  138.9830  165.3323 C.3     0  UNK0        0.1497
      2 N         144.0508  139.6730  164.6104 N.am    0  UNK0       -0.2826
      3 C         143.7537  140.8103  163.6784 C.2     0  UNK0        0.3013
      4 O         142.3374  141.2575  163.4684 O.2     0  UNK0       -0.2528
      5 N         144.8730  141.5003  162.9565 N.am    1  LYS1       -0.2857
      6 H         144.9803  139.3795  164.7482 H       0  UNK0        0.1514
      7 H         145.8025  141.2068  163.0944 H       1  LYS1        0.1513
      8 CA        144.5759  142.6375  162.0246 C.3     1  LYS1        0.1095
      9 C         143.9404  143.8908  162.5494 C.2     1  LYS1        0.0682
     10 O         142.9811  144.6612  161.6914 O.co2   1  LYS1       -0.5475
     11 OXT       144.2642  144.3736  163.9322 O.co2   1  LYS1       -0.5475
     12 CB        144.9143  142.5214  160.5679 C.3     1  LYS1        0.0254
     13 CG        143.8954  141.9957  159.6007 C.3     1  LYS1        0.0035
     14 CD        143.0604  140.8040  159.9650 C.3     1  LYS1        0.0169
     15 CE        143.6143  139.4203  159.7964 C.3     1  LYS1        0.0651
     16 NZ        144.5645  138.8637  160.8148 N.3     1  LYS1       -0.3211
     17 HZ1       145.4329  139.3985  160.7976 H       1  LYS1        0.1189
     18 HZ2       144.7624  137.8870  160.5972 H       1  LYS1        0.1189
     19 N         141.2180  140.4866  166.5784 N.am    0  UNK0       -0.3046
     20 C         142.3957  139.5583  166.6098 C.2     0  UNK0        0.2403
     21 O         143.0377  139.2051  167.9187 O.2     0  UNK0       -0.2733
     22 H         140.7966  140.7184  165.7193 H       0  UNK0        0.1494
     23 C         138.3490  140.4239  170.4191 C.3     0  UNK0        0.0001
     24 C         139.3948  141.3609  169.8916 C.3     0  UNK0        0.0016
     25 C         139.8286  142.6473  170.5296 C.3     0  UNK0        0.0001
     26 C         140.8923  143.2575  169.6657 C.3     0  UNK0        0.0016
     27 C         141.1159  142.3482  168.4938 C.3     0  UNK0        0.0180
     28 C         140.6821  141.0618  167.8559 C.3     0  UNK0        0.0715
     29 C         139.6184  140.4516  168.7198 C.3     0  UNK0        0.0196
     30 C         140.1904  141.1761  168.6335 C.3     0  UNK0        0.0016
     31 C         140.5922  140.4433  167.3878 C.3     0  UNK0        0.0001
     32 C         139.5935  139.8703  168.1989 C.3     0  UNK0        0.0001
     33 C         142.3481  137.7177  164.7766 C.3     0  UNK0        0.0290
     34 C         141.1772  137.7793  163.8410 C.3     0  UNK0        0.0021
     35 C         139.7819  137.6505  164.3763 C.3     0  UNK0        0.0001
     36 C         138.6110  137.7121  163.4407 C.3     0  UNK0        0.0000
     37 C         138.8356  137.9026  161.9698 C.3     0  UNK0        0.0000
     38 C         140.2309  138.0315  161.4347 C.3     0  UNK0        0.0000
     39 C         141.4017  137.9698  162.3703 C.3     0  UNK0        0.0001
@<TRIPOS>UNITY_ATOM_ATTR
10 1
charge -1
@<TRIPOS>BOND
     1    23    24    1
     2    24    25    1
     3    25    26    1
     4    26    27    1
     5    27    28    1
     6    28    19    1
     7    19    20   am
     8    20    21    2
     9    20     1    1
    10     1    33    1
    11    33    34    1
    12    34    35    1
    13    35    36    1
    14    36    37    1
    15    37    38    1
    16    38    39    1
    17     1     2    1
    18     2     3   am
    19     3     4    2
    20     3     5   am
    21     5     8    1
    22     8    12    1
    23    12    13    1
    24    13    14    1
    25    14    15    1
    26    15    16    1
    27     8     9    1
    28     9    10   ar
    29     9    11   ar
    30    28    29    1
    31    27    30    1
    32    30    31    1
    33    30    32    1
    34    29    24    1
    35    30    24    1
    36    39    34    1
    37    19    22    1
    38     2     6    1
    39     5     7    1
    40    16    17    1
    41    16    18    1
@<TRIPOS>MOLECULE
*****
 39 41 0 0 0
SMALL
GASTEIGER

@<TRIPOS>ATOM
      1 C         143.4076  138.9420  164.9387 C.3     0  UNK0        0.1497
      2 N         142.6252  138.0536  164.0176 N.am    0  UNK0       -0.2826
      3 C         141.4933  138.6193  163.2120 C.2     0  UNK0        0.3013
      4 O         141.1439  140.0735  163.3276 O.2     0  UNK0       -0.2528
      5 N         140.7109  137.7309  162.2909 N.am    1  LYS1       -0.2857
      6 H         142.8545  137.0992  163.9418 H       0  UNK0        0.1514
      7 H         140.9402  136.7765  162.2151 H       1  LYS1        0.1513
      8 CA        139.5790  138.2966  161.4854 C.3     1  LYS1        0.1095
      9 C         139.7956  138.6749  160.0502 C.2     1  LYS1        0.0682
     10 O         138.6560  139.2114  159.2358 O.co2   1  LYS1       -0.5475
     11 OXT       141.1520  138.5166  159.4293 O.co2   1  LYS1       -0.5475
     12 CB        138.2306  138.4841  162.1152 C.3     1  LYS1        0.0254
     13 CG        137.9244  139.7429  162.8712 C.3     1  LYS1        0.0035
     14 CD        137.6906  141.0255  162.1292 C.3     1  LYS1        0.0169
     15 CE        137.5853  142.3188  162.8816 C.3     1  LYS1        0.0651
     16 NZ        137.6752  143.6234  162.1469 N.3     1  LYS1       -0.3211
     17 HZ1       138.6111  143.7293  161.7555 H       1  LYS1        0.1189
     18 HZ2       137.4877  144.3907  162.7922 H       1  LYS1        0.1189
     19 N         141.8738  140.2017  166.6152 N.am    0  UNK0       -0.3046
     20 C         142.9309  139.1732  166.3420 C.2     0  UNK0        0.2403
     21 O         143.5113  138.3757  167.4723 O.2     0  UNK0       -0.2733
     22 H         141.4929  140.7251  165.8734 H       0  UNK0        0.1494
     23 C         138.5217  140.1994  170.0429 C.3     0  UNK0        0.0001
     24 C         139.9762  140.5610  169.9820 C.3     0  UNK0        0.0016
     25 C         140.8079  141.0653  171.1240 C.3     0  UNK0        0.0001
     26 C         142.2001  141.2977  170.6161 C.3     0  UNK0        0.0016
     27 C         142.2288  140.9371  169.1604 C.3     0  UNK0        0.0180
     28 C         141.3971  140.4329  168.0185 C.3     0  UNK0        0.0715
     29 C         140.0048  140.2004  168.5263 C.3     0  UNK0        0.0196
     30 C         140.8543  140.4818  168.7685 C.3     0  UNK0        0.0016
     31 C         141.1351  140.1895  167.3243 C.3     0  UNK0        0.0001
     32 C         139.8280  139.9712  167.8010 C.3     0  UNK0        0.0001
     33 C         144.6668  139.5993  164.4565 C.3     0  UNK0        0.0290
     34 C         144.6056  140.9469  163.8007 C.3     0  UNK0        0.0021
     35 C         144.3396  142.1711  164.6258 C.3     0  UNK0        0.0001
     36 C         144.2784  143.5188  163.9700 C.3     0  UNK0        0.0000
     37 C         144.4833  143.6423  162.4892 C.3     0  UNK0        0.0000
     38 C         144.7494  142.4181  161.6642 C.3     0  UNK0        0.0000
     39 C         144.8106  141.0704  162.3200 C.3     0  UNK0        0.0001
@<TRIPOS>UNITY_ATOM_ATTR
10 1
charge -1
@<TRIPOS>BOND
     1    23    24    1
     2    24    25    1
     3    25    26    1
     4    26    27    1
     5    27    28    1
     6    28    19    1
     7    19    20   am
     8    20    21    2
     9    20     1    1
    10     1    33    1
    11    33    34    1
    12    34    35    1
    13    35    36    1
    14    36    37    1
    15    37    38    1
    16    38    39    1
    17     1     2    1
    18     2     3   am
    19     3     4    2
    20     3     5   am
    21     5     8    1
    22     8    12    1
    23    12    13    1
    24    13    14    1
    25    14    15    1
    26    15    16    1
    27     8     9    1
    28     9    10   ar
    29     9    11   ar
    30    28    29    1
    31    27    30    1
    32    30    31    1
    33    30    32    1
    34    29    24    1
    35    30    24    1
    36    39    34    1
    37    19    22    1
    38     2     6    1
    39     5     7    1
    40    16    17    1
    41    16    18    1
@<TRIPOS>MOLECULE
*****
 39 41 0 0 0
SMALL
GASTEIGER

@<TRIPOS>ATOM
      1 C         138.7389  139.4935  164.4323 C.3     0  UNK0        0.1497
      2 N         139.5002  138.4083  163.7306 N.am    0  UNK0       -0.2826
      3 C         140.6299  138.7603  162.8085 C.2     0  UNK0        0.3013
      4 O         140.9980  140.1976  162.5883 O.2     0  UNK0       -0.2528
      5 N         141.3913  137.6750  162.1069 N.am    1  LYS1       -0.2857
      6 H         139.2586  137.4649  163.8752 H       0  UNK0        0.1514
      7 H         141.1496  136.7317  162.2514 H       1  LYS1        0.1513
      8 CA        142.5208  138.0271  161.1849 C.3     1  LYS1        0.1095
      9 C         142.2534  138.2662  159.7284 C.2     1  LYS1        0.0682
     10 O         143.3978  138.4062  158.7689 O.co2   1  LYS1       -0.5475
     11 OXT       140.8416  138.3654  159.2315 O.co2   1  LYS1       -0.5475
     12 CB        143.9179  138.1400  161.7193 C.3     1  LYS1        0.0254
     13 CG        144.3568  139.3963  162.4115 C.3     1  LYS1        0.0035
     14 CD        144.6796  139.3720  163.8762 C.3     1  LYS1        0.0169
     15 CE        143.6482  139.7977  164.8786 C.3     1  LYS1        0.0651
     16 NZ        142.9471  141.1142  164.7204 N.3     1  LYS1       -0.3211
     17 HZ1       143.6191  141.8731  164.8342 H       1  LYS1        0.1189
     18 HZ2       142.2169  141.1978  165.4277 H       1  LYS1        0.1189
     19 N         140.1762  140.7053  166.2254 N.am    0  UNK0       -0.3046
     20 C         139.0304  139.8049  165.8704 C.2     0  UNK0        0.2403
     21 O         138.1760  139.2157  166.9534 O.2     0  UNK0       -0.2733
     22 H         140.7370  141.0920  165.5146 H       0  UNK0        0.1494
     23 C         140.6834  143.7083  169.9282 C.3     0  UNK0        0.0001
     24 C         140.8051  142.2250  169.7412 C.3     0  UNK0        0.0016
     25 C         141.1566  141.2281  170.8054 C.3     0  UNK0        0.0001
     26 C         141.1653  139.8652  170.1791 C.3     0  UNK0        0.0016
     27 C         140.8193  140.0198  168.7277 C.3     0  UNK0        0.0180
     28 C         140.4678  141.0167  167.6635 C.3     0  UNK0        0.0715
     29 C         140.4590  142.3797  168.2899 C.3     0  UNK0        0.0196
     30 C         140.5966  141.4783  168.4571 C.3     0  UNK0        0.0016
     31 C         140.2769  141.3730  166.9954 C.3     0  UNK0        0.0001
     32 C         140.2686  142.6527  167.5834 C.3     0  UNK0        0.0001
     33 C         137.6859  140.2675  163.6959 C.3     0  UNK0        0.0290
     34 C         137.8790  141.7312  163.4304 C.3     0  UNK0        0.0021
     35 C         138.2382  142.2024  162.0523 C.3     0  UNK0        0.0001
     36 C         138.4313  143.6661  161.7868 C.3     0  UNK0        0.0000
     37 C         138.2653  144.6584  162.8994 C.3     0  UNK0        0.0000
     38 C         137.9061  144.1871  164.2774 C.3     0  UNK0        0.0000
     39 C         137.7130  142.7235  164.5429 C.3     0  UNK0        0.0001
@<TRIPOS>UNITY_ATOM_ATTR
10 1
charge -1
@<TRIPOS>BOND
     1    23    24    1
     2    24    25    1
     3    25    26    1
     4    26    27    1
     5    27    28    1
     6    28    19    1
     7    19    20   am
     8    20    21    2
     9    20     1    1
    10     1    33    1
    11    33    34    1
    12    34    35    1
    13    35    36    1
    14    36    37    1
    15    37    38    1
    16    38    39    1
    17     1     2    1
    18     2     3   am
    19     3     4    2
    20     3     5   am
    21     5     8    1
    22     8    12    1
    23    12    13    1
    24    13    14    1
    25    14    15    1
    26    15    16    1
    27     8     9    1
    28     9    10   ar
    29     9    11   ar
    30    28    29    1
    31    27    30    1
    32    30    31    1
    33    30    32    1
    34    29    24    1
    35    30    24    1
    36    39    34    1
    37    19    22    1
    38     2     6    1
    39     5     7    1
    40    16    17    1
    41    16    18    1
@<TRIPOS>MOLECULE
*****
 39 41 0 0 0
SMALL
GASTEIGER

@<TRIPOS>ATOM
      1 C         140.4226  138.6394  164.7251 C.3     0  UNK0        0.1497
      2 N         141.8295  138.5889  164.2075 N.am    0  UNK0       -0.2826
      3 C         142.4893  139.8390  163.7054 C.2     0  UNK0        0.3013
      4 O         141.7421  141.1396  163.7210 O.2     0  UNK0       -0.2528
      5 N         143.8962  139.7886  163.1878 N.am    1  LYS1       -0.2857
      6 H         142.3199  137.7353  164.1972 H       0  UNK0        0.1514
      7 H         144.3866  138.9350  163.1775 H       1  LYS1        0.1513
      8 CA        144.5559  141.0386  162.6858 C.3     1  LYS1        0.1095
      9 C         144.3969  141.4463  161.2510 C.2     1  LYS1        0.0682
     10 O         143.8841  140.4604  160.2436 O.co2   1  LYS1       -0.5475
     11 OXT       144.7508  142.8400  160.8237 O.co2   1  LYS1       -0.5475
     12 CB        145.3747  141.8811  163.6185 C.3     1  LYS1        0.0254
     13 CG        144.7505  142.4513  164.8575 C.3     1  LYS1        0.0035
     14 CD        144.3009  143.8823  164.8804 C.3     1  LYS1        0.0169
     15 CE        143.3707  144.3932  163.8205 C.3     1  LYS1        0.0651
     16 NZ        143.9155  145.1515  162.6466 N.3     1  LYS1       -0.3211
     17 HZ1       144.3113  146.0354  162.9669 H       1  LYS1        0.1189
     18 HZ2       143.1636  145.3365  161.9826 H       1  LYS1        0.1189
     19 N         141.2034  140.0629  166.7534 N.am    0  UNK0       -0.3046
     20 C         140.1329  139.2841  166.0481 C.2     0  UNK0        0.2403
     21 O         138.7725  139.1501  166.6659 O.2     0  UNK0       -0.2733
     22 H         142.0962  140.1509  166.3479 H       0  UNK0        0.1494
     23 C         140.3620  143.8542  169.5647 C.3     0  UNK0        0.0001
     24 C         140.4622  142.3736  169.7828 C.3     0  UNK0        0.0016
     25 C         140.3010  141.6625  171.0936 C.3     0  UNK0        0.0001
     26 C         140.4804  140.1935  170.8492 C.3     0  UNK0        0.0016
     27 C         140.7525  139.9966  169.3872 C.3     0  UNK0        0.0180
     28 C         140.9137  140.7077  168.0764 C.3     0  UNK0        0.0715
     29 C         140.7343  142.1768  168.3208 C.3     0  UNK0        0.0196
     30 C         140.7412  141.3440  168.7281 C.3     0  UNK0        0.0016
     31 C         141.0266  140.8931  167.3263 C.3     0  UNK0        0.0001
     32 C         140.8581  142.2724  167.5557 C.3     0  UNK0        0.0001
     33 C         139.3053  138.0451  163.9197 C.3     0  UNK0        0.0290
     34 C         138.9746  138.6054  162.5681 C.3     0  UNK0        0.0021
     35 C         139.6745  138.0837  161.3483 C.3     0  UNK0        0.0001
     36 C         139.3439  138.6440  159.9967 C.3     0  UNK0        0.0000
     37 C         138.3133  139.7260  159.8650 C.3     0  UNK0        0.0000
     38 C         137.6135  140.2477  161.0849 C.3     0  UNK0        0.0000
     39 C         137.9442  139.6874  162.4364 C.3     0  UNK0        0.0001
@<TRIPOS>UNITY_ATOM_ATTR
10 1
charge -1
@<TRIPOS>BOND
     1    23    24    1
     2    24    25    1
     3    25    26    1
     4    26    27    1
     5    27    28    1
     6    28    19    1
     7    19    20   am
     8    20    21    2
     9    20     1    1
    10     1    33    1
    11    33    34    1
    12    34    35    1
    13    35    36    1
    14    36    37    1
    15    37    38    1
    16    38    39    1
    17     1     2    1
    18     2     3   am
    19     3     4    2
    20     3     5   am
    21     5     8    1
    22     8    12    1
    23    12    13    1
    24    13    14    1
    25    14    15    1
    26    15    16    1
    27     8     9    1
    28     9    10   ar
    29     9    11   ar
    30    28    29    1
    31    27    30    1
    32    30    31    1
    33    30    32    1
    34    29    24    1
    35    30    24    1
    36    39    34    1
    37    19    22    1
    38     2     6    1
    39     5     7    1
    40    16    17    1
    41    16    18    1
@<TRIPOS>MOLECULE
*****
 39 41 0 0 0
SMALL
GASTEIGER

@<TRIPOS>ATOM
      1 C         143.0804  140.7242  164.0623 C.3     0  UNK0        0.1497
      2 N         143.2669  141.4494  162.7626 N.am    0  UNK0       -0.2826
      3 C         142.0953  142.1078  162.0962 C.2     0  UNK0        0.3013
      4 O         140.7372  142.0410  162.7297 O.2     0  UNK0       -0.2528
      5 N         142.2818  142.8329  160.7965 N.am    1  LYS1       -0.2857
      6 H         144.1582  141.4932  162.3469 H       0  UNK0        0.1514
      7 H         143.1731  142.8768  160.3808 H       1  LYS1        0.1513
      8 CA        141.1103  143.4913  160.1302 C.3     1  LYS1        0.1095
      9 C         140.0315  142.6533  159.5105 C.2     1  LYS1        0.0682
     10 O         140.2999  141.2175  159.1694 O.co2   1  LYS1       -0.5475
     11 OXT       138.6842  143.2511  159.2319 O.co2   1  LYS1       -0.5475
     12 CB        141.0174  144.9877  160.0836 C.3     1  LYS1        0.0254
     13 CG        140.0696  145.7091  160.9953 C.3     1  LYS1        0.0035
     14 CD        139.9177  145.2676  162.4208 C.3     1  LYS1        0.0169
     15 CE        138.5966  144.7521  162.9095 C.3     1  LYS1        0.0651
     16 NZ        137.8698  143.6952  162.1319 N.3     1  LYS1       -0.3211
     17 HZ1       137.5820  144.0743  161.2298 H       1  LYS1        0.1189
     18 HZ2       137.0459  143.3956  162.6533 H       1  LYS1        0.1189
     19 N         142.2833  141.0115  166.5183 N.am    0  UNK0       -0.3046
     20 C         143.1042  141.4842  165.3553 C.2     0  UNK0        0.2403
     21 O         143.9490  142.7169  165.4853 O.2     0  UNK0       -0.2733
     22 H         141.7288  140.2025  166.4330 H       0  UNK0        0.1494
     23 C         140.3128  143.8496  169.8422 C.3     0  UNK0        0.0001
     24 C         141.6414  143.1731  169.6776 C.3     0  UNK0        0.0016
     25 C         142.7919  143.2442  170.6375 C.3     0  UNK0        0.0001
     26 C         143.9144  142.4219  170.0773 C.3     0  UNK0        0.0016
     27 C         143.4576  141.8426  168.7712 C.3     0  UNK0        0.0180
     28 C         142.3071  141.7715  167.8113 C.3     0  UNK0        0.0715
     29 C         141.1846  142.5939  168.3715 C.3     0  UNK0        0.0196
     30 C         142.0528  142.3069  168.5242 C.3     0  UNK0        0.0016
     31 C         141.8337  141.6189  167.2094 C.3     0  UNK0        0.0001
     32 C         140.7798  142.3910  167.7353 C.3     0  UNK0        0.0001
     33 C         142.8700  139.2390  164.0691 C.3     0  UNK0        0.0290
     34 C         141.5080  138.6732  163.7954 C.3     0  UNK0        0.0021
     35 C         141.0502  138.4708  162.3813 C.3     0  UNK0        0.0001
     36 C         139.6883  137.9050  162.1076 C.3     0  UNK0        0.0000
     37 C         138.7841  137.5416  163.2480 C.3     0  UNK0        0.0000
     38 C         139.2419  137.7439  164.6620 C.3     0  UNK0        0.0000
     39 C         140.6039  138.3097  164.9357 C.3     0  UNK0        0.0001
@<TRIPOS>UNITY_ATOM_ATTR
10 1
charge -1
@<TRIPOS>BOND
     1    23    24    1
     2    24    25    1
     3    25    26    1
     4    26    27    1
     5    27    28    1
     6    28    19    1
     7    19    20   am
     8    20    21    2
     9    20     1    1
    10     1    33    1
    11    33    34    1
    12    34    35    1
    13    35    36    1
    14    36    37    1
    15    37    38    1
    16    38    39    1
    17     1     2    1
    18     2     3   am
    19     3     4    2
    20     3     5   am
    21     5     8    1
    22     8    12    1
    23    12    13    1
    24    13    14    1
    25    14    15    1
    26    15    16    1
    27     8     9    1
    28     9    10   ar
    29     9    11   ar
    30    28    29    1
    31    27    30    1
    32    30    31    1
    33    30    32    1
    34    29    24    1
    35    30    24    1
    36    39    34    1
    37    19    22    1
    38     2     6    1
    39     5     7    1
    40    16    17    1
    41    16    18    1
