@<TRIPOS>MOLECULE
*****
 31 33 0 0 0
SMALL
GASTEIGER

@<TRIPOS>ATOM
      1 O         141.7112  137.7347  162.3553 O.3     1  UNL1       -0.3470
      2 C         142.7241  138.2426  163.3382 C.3     1  UNL1        0.1875
      3 C         141.6706  141.7101  164.9557 C.ar    1  UNL1        0.0803
      4 C         141.5421  141.3223  166.3989 C.ar    1  UNL1        0.0230
      5 C         141.8075  139.9078  166.8219 C.ar    1  UNL1        0.0742
      6 C         142.2015  138.8813  165.8017 C.ar    1  UNL1        0.0211
      7 C         142.3301  139.2692  164.3585 C.ar    1  UNL1        0.0887
      8 N         142.0646  140.6836  163.9355 N.ar    1  UNL1       -0.2472
      9 C         142.2826  145.4909  163.9160 C.3     1  UNL1        0.0264
     10 C         142.5481  144.0765  164.3390 C.2     1  UNL1       -0.0421
     11 C         143.9565  143.6140  164.5684 C.3     1  UNL1        0.0264
     12 C         141.4052  143.1246  164.5327 C.2     1  UNL1        0.0106
     13 C         141.6790  139.5200  168.2653 C.3     1  UNL1        0.4187
     14 F         141.5504  139.1321  169.7085 F       1  UNL1       -0.1659
     15 F         142.9751  138.7699  168.1791 F       1  UNL1       -0.1659
     16 F         140.3829  140.2700  168.3514 F       1  UNL1       -0.1659
     17 C         140.2679  137.6324  162.7511 C.3     1  UNL1        0.1467
     18 C         139.2646  138.5918  162.1829 C.3     1  UNL1        0.0489
     19 C         140.0012  138.2141  160.9321 C.3     1  UNL1        0.0238
     20 C         139.5997  138.8112  159.6159 C.3     1  UNL1        0.0725
     21 N         138.4615  139.7861  159.5507 N.3     1  UNL1       -0.2715
     22 C         138.0600  140.3833  158.2346 C.3     1  UNL1        0.0896
     23 C         137.7249  140.1638  160.8016 C.3     1  UNL1        0.0725
     24 C         138.1264  139.5667  162.1177 C.3     1  UNL1        0.0238
     25 C         138.8764  138.6363  163.6312 C.ar    1  UNL1       -0.0202
     26 C         138.8636  137.3752  164.4433 C.ar    1  UNL1       -0.0019
     27 C         138.4754  137.4197  165.8915 C.ar    1  UNL1        0.0293
     28 C         138.1001  138.7252  166.5276 C.ar    1  UNL1        0.1401
     29 F         137.7119  138.7698  167.9758 F       1  UNL1       -0.2042
     30 C         138.1129  139.9864  165.7154 C.ar    1  UNL1        0.0293
     31 C         138.5011  139.9418  164.2673 C.ar    1  UNL1       -0.0019
@<TRIPOS>BOND
     1     9    10    1
     2    10    11    1
     3    10    12    2
     4    12     3    1
     5     3     4   ar
     6     4     5   ar
     7     5    13    1
     8    13    14    1
     9    13    15    1
    10    13    16    1
    11     5     6   ar
    12     6     7   ar
    13     7     2    1
    14     2     1    1
    15     1    17    1
    16    17    18    1
    17    18    25    1
    18    25    26   ar
    19    26    27   ar
    20    27    28   ar
    21    28    29    1
    22    28    30   ar
    23    30    31   ar
    24    18    19    1
    25    19    20    1
    26    20    21    1
    27    21    22    1
    28    21    23    1
    29    23    24    1
    30     7     8   ar
    31     8     3   ar
    32    24    18    1
    33    31    25   ar
@<TRIPOS>MOLECULE
*****
 31 33 0 0 0
SMALL
GASTEIGER

@<TRIPOS>ATOM
      1 O         143.2863  138.5567  164.2162 O.3     1  UNL1       -0.3470
      2 C         142.0099  137.9779  163.6817 C.3     1  UNL1        0.1875
      3 C         138.8816  140.4196  163.7274 C.ar    1  UNL1        0.0803
      4 C         138.0593  139.8064  164.8218 C.ar    1  UNL1        0.0230
      5 C         138.5539  138.5837  165.5363 C.ar    1  UNL1        0.0742
      6 C         139.8707  137.9742  165.1562 C.ar    1  UNL1        0.0211
      7 C         140.6930  138.5874  164.0618 C.ar    1  UNL1        0.0887
      8 N         140.1984  139.8101  163.3474 N.ar    1  UNL1       -0.2472
      9 C         137.9888  144.2090  162.9574 C.3     1  UNL1        0.0264
     10 C         138.4833  142.9863  163.6718 C.2     1  UNL1       -0.0421
     11 C         139.0743  143.1078  165.0452 C.3     1  UNL1        0.0264
     12 C         138.3870  141.6423  163.0129 C.2     1  UNL1        0.0106
     13 C         137.7316  137.9705  166.6308 C.3     1  UNL1        0.4187
     14 F         136.9093  137.3574  167.7252 F       1  UNL1       -0.1659
     15 F         137.4355  139.3370  167.1738 F       1  UNL1       -0.1659
     16 F         138.0277  136.6040  166.0877 F       1  UNL1       -0.1659
     17 C         143.2726  139.3621  165.4816 C.3     1  UNL1        0.1467
     18 C         143.0931  140.8501  165.4216 C.3     1  UNL1        0.0489
     19 C         143.9048  140.6353  164.1786 C.3     1  UNL1        0.0238
     20 C         144.2768  141.8036  163.3145 C.3     1  UNL1        0.0725
     21 N         143.8370  143.1868  163.6934 N.3     1  UNL1       -0.2715
     22 C         144.2090  144.3551  162.8293 C.3     1  UNL1        0.0896
     23 C         143.0254  143.4016  164.9364 C.3     1  UNL1        0.0725
     24 C         142.6534  142.2333  165.8005 C.3     1  UNL1        0.0238
     25 C         142.3438  140.5481  166.6854 C.ar    1  UNL1       -0.0202
     26 C         142.9715  139.6885  167.7423 C.ar    1  UNL1       -0.0019
     27 C         142.2221  139.3866  169.0062 C.ar    1  UNL1        0.0293
     28 C         140.8451  139.9442  169.2131 C.ar    1  UNL1        0.1401
     29 F         140.0957  139.6423  170.4769 F       1  UNL1       -0.2042
     30 C         140.2174  140.8039  168.1562 C.ar    1  UNL1        0.0293
     31 C         140.9668  141.1058  166.8924 C.ar    1  UNL1       -0.0019
@<TRIPOS>BOND
     1     9    10    1
     2    10    11    1
     3    10    12    2
     4    12     3    1
     5     3     4   ar
     6     4     5   ar
     7     5    13    1
     8    13    14    1
     9    13    15    1
    10    13    16    1
    11     5     6   ar
    12     6     7   ar
    13     7     2    1
    14     2     1    1
    15     1    17    1
    16    17    18    1
    17    18    25    1
    18    25    26   ar
    19    26    27   ar
    20    27    28   ar
    21    28    29    1
    22    28    30   ar
    23    30    31   ar
    24    18    19    1
    25    19    20    1
    26    20    21    1
    27    21    22    1
    28    21    23    1
    29    23    24    1
    30     7     8   ar
    31     8     3   ar
    32    24    18    1
    33    31    25   ar
@<TRIPOS>MOLECULE
*****
 31 33 0 0 0
SMALL
GASTEIGER

@<TRIPOS>ATOM
      1 O         138.9700  143.5568  164.8901 O.3     1  UNL1       -0.3470
      2 C         138.0696  142.4595  164.4053 C.3     1  UNL1        0.1875
      3 C         140.0246  139.1189  163.5284 C.ar    1  UNL1        0.0803
      4 C         139.4565  138.1811  164.5520 C.ar    1  UNL1        0.0230
      5 C         138.4262  138.6693  165.5267 C.ar    1  UNL1        0.0742
      6 C         137.9639  140.0954  165.4778 C.ar    1  UNL1        0.0211
      7 C         138.5319  141.0333  164.4542 C.ar    1  UNL1        0.0887
      8 N         139.5623  140.5450  163.4795 N.ar    1  UNL1       -0.2472
      9 C         143.5223  138.0383  161.9961 C.3     1  UNL1        0.0264
     10 C         142.4920  138.5266  162.9708 C.2     1  UNL1       -0.0421
     11 C         142.8988  138.9108  164.3626 C.3     1  UNL1        0.0264
     12 C         141.0549  138.6306  162.5538 C.2     1  UNL1        0.0106
     13 C         137.8581  137.7314  166.5503 C.3     1  UNL1        0.4187
     14 F         137.2901  136.7936  167.5739 F       1  UNL1       -0.1659
     15 F         137.6182  138.8870  167.4759 F       1  UNL1       -0.1659
     16 F         138.0981  136.5758  165.6246 F       1  UNL1       -0.1659
     17 C         139.8605  143.3277  166.0753 C.3     1  UNL1        0.1467
     18 C         141.2812  142.8913  165.8727 C.3     1  UNL1        0.0489
     19 C         141.1139  143.7931  164.6858 C.3     1  UNL1        0.0238
     20 C         142.2540  143.9980  163.7329 C.3     1  UNL1        0.0725
     21 N         143.5616  143.3011  163.9669 N.3     1  UNL1       -0.2715
     22 C         144.7017  143.5060  163.0140 C.3     1  UNL1        0.0896
     23 C         143.7289  142.3993  165.1538 C.3     1  UNL1        0.0725
     24 C         142.5887  142.1944  166.1067 C.3     1  UNL1        0.0238
     25 C         140.9551  142.1411  167.1300 C.ar    1  UNL1       -0.0202
     26 C         140.4994  142.8847  168.3503 C.ar    1  UNL1       -0.0019
     27 C         140.1733  142.1345  169.6076 C.ar    1  UNL1        0.0293
     28 C         140.3029  140.6406  169.6446 C.ar    1  UNL1        0.1401
     29 F         139.9769  139.8903  170.9018 F       1  UNL1       -0.2042
     30 C         140.7587  139.8969  168.4242 C.ar    1  UNL1        0.0293
     31 C         141.0848  140.6472  167.1670 C.ar    1  UNL1       -0.0019
@<TRIPOS>BOND
     1     9    10    1
     2    10    11    1
     3    10    12    2
     4    12     3    1
     5     3     4   ar
     6     4     5   ar
     7     5    13    1
     8    13    14    1
     9    13    15    1
    10    13    16    1
    11     5     6   ar
    12     6     7   ar
    13     7     2    1
    14     2     1    1
    15     1    17    1
    16    17    18    1
    17    18    25    1
    18    25    26   ar
    19    26    27   ar
    20    27    28   ar
    21    28    29    1
    22    28    30   ar
    23    30    31   ar
    24    18    19    1
    25    19    20    1
    26    20    21    1
    27    21    22    1
    28    21    23    1
    29    23    24    1
    30     7     8   ar
    31     8     3   ar
    32    24    18    1
    33    31    25   ar
@<TRIPOS>MOLECULE
*****
 31 33 0 0 0
SMALL
GASTEIGER

@<TRIPOS>ATOM
      1 O         138.1217  139.1244  161.8444 O.3     1  UNL1       -0.3470
      2 C         137.6621  140.5380  162.0457 C.3     1  UNL1        0.1875
      3 C         140.9764  142.5755  162.8295 C.ar    1  UNL1        0.0803
      4 C         140.4628  143.5844  163.8135 C.ar    1  UNL1        0.0230
      5 C         139.0157  143.5779  164.2082 C.ar    1  UNL1        0.0742
      6 C         138.0821  142.5625  163.6190 C.ar    1  UNL1        0.0211
      7 C         138.5957  141.5535  162.6350 C.ar    1  UNL1        0.0887
      8 N         140.0428  141.5600  162.2403 N.ar    1  UNL1       -0.2472
      9 C         144.9203  142.1827  163.0317 C.3     1  UNL1        0.0264
     10 C         143.4732  142.1762  163.4264 C.2     1  UNL1       -0.0421
     11 C         143.0758  141.7638  164.8128 C.3     1  UNL1        0.0264
     12 C         142.4235  142.5820  162.4348 C.2     1  UNL1        0.0106
     13 C         138.5022  144.5869  165.1922 C.3     1  UNL1        0.4187
     14 F         137.9886  145.5959  166.1762 F       1  UNL1       -0.1659
     15 F         137.1443  143.9524  165.1342 F       1  UNL1       -0.1659
     16 F         139.8601  145.2215  165.2503 F       1  UNL1       -0.1659
     17 C         138.6469  138.3339  163.0061 C.3     1  UNL1        0.1467
     18 C         140.1120  138.3558  163.3271 C.3     1  UNL1        0.0489
     19 C         140.1720  138.0731  161.8553 C.3     1  UNL1        0.0238
     20 C         141.4996  137.9078  161.1768 C.3     1  UNL1        0.0725
     21 N         142.7671  138.0252  161.9704 N.3     1  UNL1       -0.2715
     22 C         144.0946  137.8599  161.2919 C.3     1  UNL1        0.0896
     23 C         142.7071  138.3080  163.4422 C.3     1  UNL1        0.0725
     24 C         141.3795  138.4733  164.1206 C.3     1  UNL1        0.0238
     25 C         139.5431  138.6310  164.6876 C.ar    1  UNL1       -0.0202
     26 C         138.5121  137.7100  165.2697 C.ar    1  UNL1       -0.0019
     27 C         137.9433  137.9851  166.6301 C.ar    1  UNL1        0.0293
     28 C         138.4053  139.1812  167.4083 C.ar    1  UNL1        0.1401
     29 F         137.8365  139.4564  168.7687 F       1  UNL1       -0.2042
     30 C         139.4364  140.1023  166.8262 C.ar    1  UNL1        0.0293
     31 C         140.0052  139.8271  165.4658 C.ar    1  UNL1       -0.0019
@<TRIPOS>BOND
     1     9    10    1
     2    10    11    1
     3    10    12    2
     4    12     3    1
     5     3     4   ar
     6     4     5   ar
     7     5    13    1
     8    13    14    1
     9    13    15    1
    10    13    16    1
    11     5     6   ar
    12     6     7   ar
    13     7     2    1
    14     2     1    1
    15     1    17    1
    16    17    18    1
    17    18    25    1
    18    25    26   ar
    19    26    27   ar
    20    27    28   ar
    21    28    29    1
    22    28    30   ar
    23    30    31   ar
    24    18    19    1
    25    19    20    1
    26    20    21    1
    27    21    22    1
    28    21    23    1
    29    23    24    1
    30     7     8   ar
    31     8     3   ar
    32    24    18    1
    33    31    25   ar
@<TRIPOS>MOLECULE
*****
 31 33 0 0 0
SMALL
GASTEIGER

@<TRIPOS>ATOM
      1 O         142.0622  138.2256  162.7507 O.3     1  UNL1       -0.3470
      2 C         142.8929  138.4897  163.9714 C.3     1  UNL1        0.1875
      3 C         141.4458  140.7918  166.8621 C.ar    1  UNL1        0.0803
      4 C         142.0694  142.1106  166.5131 C.ar    1  UNL1        0.0230
      5 C         142.9675  142.2225  165.3170 C.ar    1  UNL1        0.0742
      6 C         143.2420  141.0156  164.4697 C.ar    1  UNL1        0.0211
      7 C         142.6184  139.6967  164.8186 C.ar    1  UNL1        0.0887
      8 N         141.7203  139.5849  166.0148 N.ar    1  UNL1       -0.2472
      9 C         140.1617  139.9502  170.5217 C.3     1  UNL1        0.0264
     10 C         141.0598  140.0620  169.3255 C.2     1  UNL1       -0.0421
     11 C         142.4702  139.5560  169.3966 C.3     1  UNL1        0.0264
     12 C         140.5477  140.6799  168.0583 C.2     1  UNL1        0.0106
     13 C         143.5911  143.5414  164.9680 C.3     1  UNL1        0.4187
     14 F         144.2146  144.8603  164.6192 F       1  UNL1       -0.1659
     15 F         144.5259  143.4076  166.1334 F       1  UNL1       -0.1659
     16 F         142.6562  143.6752  163.8027 F       1  UNL1       -0.1659
     17 C         140.6156  137.8554  162.8937 C.3     1  UNL1        0.1467
     18 C         139.5608  138.6745  162.2108 C.3     1  UNL1        0.0489
     19 C         140.4466  138.3631  161.0411 C.3     1  UNL1        0.0238
     20 C         140.0972  138.8801  159.6771 C.3     1  UNL1        0.0725
     21 N         138.8620  139.7087  159.4828 N.3     1  UNL1       -0.2715
     22 C         138.5126  140.2257  158.1188 C.3     1  UNL1        0.0896
     23 C         137.9761  140.0201  160.6525 C.3     1  UNL1        0.0725
     24 C         138.3255  139.5031  162.0165 C.3     1  UNL1        0.0238
     25 C         139.0413  138.7015  163.6177 C.ar    1  UNL1       -0.0202
     26 C         138.5563  139.9898  164.2136 C.ar    1  UNL1       -0.0019
     27 C         138.0368  140.0168  165.6205 C.ar    1  UNL1        0.0293
     28 C         138.0023  138.7555  166.4315 C.ar    1  UNL1        0.1401
     29 F         137.4828  138.7824  167.8384 F       1  UNL1       -0.2042
     30 C         138.4873  137.4671  165.8357 C.ar    1  UNL1        0.0293
     31 C         139.0067  137.4402  164.4288 C.ar    1  UNL1       -0.0019
@<TRIPOS>BOND
     1     9    10    1
     2    10    11    1
     3    10    12    2
     4    12     3    1
     5     3     4   ar
     6     4     5   ar
     7     5    13    1
     8    13    14    1
     9    13    15    1
    10    13    16    1
    11     5     6   ar
    12     6     7   ar
    13     7     2    1
    14     2     1    1
    15     1    17    1
    16    17    18    1
    17    18    25    1
    18    25    26   ar
    19    26    27   ar
    20    27    28   ar
    21    28    29    1
    22    28    30   ar
    23    30    31   ar
    24    18    19    1
    25    19    20    1
    26    20    21    1
    27    21    22    1
    28    21    23    1
    29    23    24    1
    30     7     8   ar
    31     8     3   ar
    32    24    18    1
    33    31    25   ar
@<TRIPOS>MOLECULE
*****
 31 33 0 0 0
SMALL
GASTEIGER

@<TRIPOS>ATOM
      1 O         138.7602  140.0306  161.8853 O.3     1  UNL1       -0.3470
      2 C         139.0842  141.0260  162.9595 C.3     1  UNL1        0.1875
      3 C         140.8544  140.5253  166.4760 C.ar    1  UNL1        0.0803
      4 C         139.8709  139.6246  167.1627 C.ar    1  UNL1        0.0230
      5 C         138.6252  139.1912  166.4484 C.ar    1  UNL1        0.0742
      6 C         138.3630  139.6583  165.0473 C.ar    1  UNL1        0.0211
      7 C         139.3464  140.5589  164.3606 C.ar    1  UNL1        0.0887
      8 N         140.5922  140.9924  165.0749 N.ar    1  UNL1       -0.2472
      9 C         143.2839  142.4975  168.9168 C.3     1  UNL1        0.0264
     10 C         142.0382  142.0640  168.2025 C.2     1  UNL1       -0.0421
     11 C         140.7305  142.7358  168.5004 C.3     1  UNL1        0.0264
     12 C         142.1001  140.9588  167.1903 C.2     1  UNL1        0.0106
     13 C         137.6417  138.2905  167.1352 C.3     1  UNL1        0.4187
     14 F         136.6583  137.3899  167.8219 F       1  UNL1       -0.1659
     15 F         137.6761  137.3577  165.9610 F       1  UNL1       -0.1659
     16 F         137.6074  139.2233  168.3093 F       1  UNL1       -0.1659
     17 C         139.4361  138.6915  161.8750 C.3     1  UNL1        0.1467
     18 C         140.5992  138.4454  160.9603 C.3     1  UNL1        0.0489
     19 C         139.5193  138.6903  159.9485 C.3     1  UNL1        0.0238
     20 C         139.8371  138.6338  158.4837 C.3     1  UNL1        0.0725
     21 N         141.2350  138.3324  158.0306 N.3     1  UNL1       -0.2715
     22 C         141.5529  138.2759  156.5658 C.3     1  UNL1        0.0896
     23 C         142.3149  138.0875  159.0424 C.3     1  UNL1        0.0725
     24 C         141.9970  138.1440  160.5073 C.3     1  UNL1        0.0238
     25 C         141.2752  138.2860  162.2898 C.ar    1  UNL1       -0.0202
     26 C         140.7092  137.3440  163.3108 C.ar    1  UNL1       -0.0019
     27 C         141.3852  137.1846  164.6403 C.ar    1  UNL1        0.0293
     28 C         142.6272  137.9671  164.9489 C.ar    1  UNL1        0.1401
     29 F         143.3032  137.8077  166.2783 F       1  UNL1       -0.2042
     30 C         143.1932  138.9091  163.9278 C.ar    1  UNL1        0.0293
     31 C         142.5171  139.0685  162.5984 C.ar    1  UNL1       -0.0019
@<TRIPOS>BOND
     1     9    10    1
     2    10    11    1
     3    10    12    2
     4    12     3    1
     5     3     4   ar
     6     4     5   ar
     7     5    13    1
     8    13    14    1
     9    13    15    1
    10    13    16    1
    11     5     6   ar
    12     6     7   ar
    13     7     2    1
    14     2     1    1
    15     1    17    1
    16    17    18    1
    17    18    25    1
    18    25    26   ar
    19    26    27   ar
    20    27    28   ar
    21    28    29    1
    22    28    30   ar
    23    30    31   ar
    24    18    19    1
    25    19    20    1
    26    20    21    1
    27    21    22    1
    28    21    23    1
    29    23    24    1
    30     7     8   ar
    31     8     3   ar
    32    24    18    1
    33    31    25   ar
@<TRIPOS>MOLECULE
*****
 31 33 0 0 0
SMALL
GASTEIGER

@<TRIPOS>ATOM
      1 O         143.2727  140.4882  165.4918 O.3     1  UNL1       -0.3470
      2 C         143.1529  141.3855  164.2959 C.3     1  UNL1        0.1875
      3 C         139.8354  142.1270  162.2478 C.ar    1  UNL1        0.0803
      4 C         139.1499  143.0997  163.1610 C.ar    1  UNL1        0.0230
      5 C         139.7988  143.5010  164.4525 C.ar    1  UNL1        0.0742
      6 C         141.1330  142.9296  164.8308 C.ar    1  UNL1        0.0211
      7 C         141.8185  141.9570  163.9176 C.ar    1  UNL1        0.0887
      8 N         141.1697  141.5557  162.6261 N.ar    1  UNL1       -0.2472
      9 C         138.6633  142.2051  158.4570 C.3     1  UNL1        0.0264
     10 C         139.3121  142.6064  159.7486 C.2     1  UNL1       -0.0421
     11 C         140.0864  143.8884  159.8323 C.3     1  UNL1        0.0264
     12 C         139.1866  141.7257  160.9563 C.2     1  UNL1        0.0106
     13 C         139.1132  144.4737  165.3658 C.3     1  UNL1        0.4187
     14 F         138.4276  145.4463  166.2789 F       1  UNL1       -0.1659
     15 F         138.4917  145.1493  164.1795 F       1  UNL1       -0.1659
     16 F         139.7346  143.7980  166.5520 F       1  UNL1       -0.1659
     17 C         142.2074  139.4711  165.7761 C.3     1  UNL1        0.1467
     18 C         141.1848  139.7338  166.8415 C.3     1  UNL1        0.0489
     19 C         142.4429  139.9494  167.6292 C.3     1  UNL1        0.0238
     20 C         142.3648  140.3211  169.0803 C.3     1  UNL1        0.0725
     21 N         141.0285  140.4773  169.7437 N.3     1  UNL1       -0.2715
     22 C         140.9505  140.8491  171.1947 C.3     1  UNL1        0.0896
     23 C         139.7704  140.2618  168.9559 C.3     1  UNL1        0.0725
     24 C         139.8485  139.8900  167.5048 C.3     1  UNL1        0.0238
     25 C         140.2818  139.4270  165.6837 C.ar    1  UNL1       -0.0202
     26 C         138.9688  140.1394  165.5473 C.ar    1  UNL1       -0.0019
     27 C         138.0658  139.8325  164.3895 C.ar    1  UNL1        0.0293
     28 C         138.4757  138.8133  163.3682 C.ar    1  UNL1        0.1401
     29 F         137.5728  138.5065  162.2104 F       1  UNL1       -0.2042
     30 C         139.7888  138.1009  163.5046 C.ar    1  UNL1        0.0293
     31 C         140.6917  138.4078  164.6624 C.ar    1  UNL1       -0.0019
@<TRIPOS>BOND
     1     9    10    1
     2    10    11    1
     3    10    12    2
     4    12     3    1
     5     3     4   ar
     6     4     5   ar
     7     5    13    1
     8    13    14    1
     9    13    15    1
    10    13    16    1
    11     5     6   ar
    12     6     7   ar
    13     7     2    1
    14     2     1    1
    15     1    17    1
    16    17    18    1
    17    18    25    1
    18    25    26   ar
    19    26    27   ar
    20    27    28   ar
    21    28    29    1
    22    28    30   ar
    23    30    31   ar
    24    18    19    1
    25    19    20    1
    26    20    21    1
    27    21    22    1
    28    21    23    1
    29    23    24    1
    30     7     8   ar
    31     8     3   ar
    32    24    18    1
    33    31    25   ar
@<TRIPOS>MOLECULE
*****
 31 33 0 0 0
SMALL
GASTEIGER

@<TRIPOS>ATOM
      1 O         138.7227  144.2663  163.0529 O.3     1  UNL1       -0.3470
      2 C         138.4478  144.1079  164.5189 C.3     1  UNL1        0.1875
      3 C         140.8136  142.1436  167.0278 C.ar    1  UNL1        0.0803
      4 C         140.3472  140.7343  166.8127 C.ar    1  UNL1        0.0230
      5 C         139.2476  140.4495  165.8330 C.ar    1  UNL1        0.0742
      6 C         138.6144  141.5740  165.0685 C.ar    1  UNL1        0.0211
      7 C         139.0809  142.9833  165.2836 C.ar    1  UNL1        0.0887
      8 N         140.1805  143.2681  166.2632 N.ar    1  UNL1       -0.2472
      9 C         142.6793  143.0996  170.3976 C.3     1  UNL1        0.0264
     10 C         141.5797  142.8148  169.4179 C.2     1  UNL1       -0.0421
     11 C         140.1464  142.9165  169.8487 C.3     1  UNL1        0.0264
     12 C         141.9132  142.4284  168.0075 C.2     1  UNL1        0.0106
     13 C         138.7811  139.0402  165.6180 C.3     1  UNL1        0.4187
     14 F         138.3146  137.6309  165.4029 F       1  UNL1       -0.1659
     15 F         138.2824  138.9895  167.0317 F       1  UNL1       -0.1659
     16 F         139.2798  139.0908  164.2042 F       1  UNL1       -0.1659
     17 C         140.1227  144.1257  162.5329 C.3     1  UNL1        0.1467
     18 C         140.5737  142.8261  161.9350 C.3     1  UNL1        0.0489
     19 C         139.2863  143.0224  161.1907 C.3     1  UNL1        0.0238
     20 C         138.8427  142.0076  160.1790 C.3     1  UNL1        0.0725
     21 N         139.6864  140.7965  159.9118 N.3     1  UNL1       -0.2715
     22 C         139.2427  139.7818  158.9001 C.3     1  UNL1        0.0896
     23 C         140.9738  140.6002  160.6561 C.3     1  UNL1        0.0725
     24 C         141.4174  141.6150  161.6677 C.3     1  UNL1        0.0238
     25 C         141.7045  143.0812  162.8870 C.ar    1  UNL1       -0.0202
     26 C         142.3261  141.9399  163.6362 C.ar    1  UNL1       -0.0019
     27 C         143.4569  142.1950  164.5882 C.ar    1  UNL1        0.0293
     28 C         143.9660  143.5912  164.7911 C.ar    1  UNL1        0.1401
     29 F         145.0967  143.8463  165.7431 F       1  UNL1       -0.2042
     30 C         143.3444  144.7325  164.0419 C.ar    1  UNL1        0.0293
     31 C         142.2136  144.4774  163.0899 C.ar    1  UNL1       -0.0019
@<TRIPOS>BOND
     1     9    10    1
     2    10    11    1
     3    10    12    2
     4    12     3    1
     5     3     4   ar
     6     4     5   ar
     7     5    13    1
     8    13    14    1
     9    13    15    1
    10    13    16    1
    11     5     6   ar
    12     6     7   ar
    13     7     2    1
    14     2     1    1
    15     1    17    1
    16    17    18    1
    17    18    25    1
    18    25    26   ar
    19    26    27   ar
    20    27    28   ar
    21    28    29    1
    22    28    30   ar
    23    30    31   ar
    24    18    19    1
    25    19    20    1
    26    20    21    1
    27    21    22    1
    28    21    23    1
    29    23    24    1
    30     7     8   ar
    31     8     3   ar
    32    24    18    1
    33    31    25   ar
@<TRIPOS>MOLECULE
*****
 31 33 0 0 0
SMALL
GASTEIGER

@<TRIPOS>ATOM
      1 O         143.4706  138.7386  163.1132 O.3     1  UNL1       -0.3470
      2 C         143.7514  139.3165  164.4686 C.3     1  UNL1        0.1875
      3 C         141.0059  140.7220  166.9660 C.ar    1  UNL1        0.0803
      4 C         140.7751  142.0890  166.3933 C.ar    1  UNL1        0.0230
      5 C         141.5364  142.5319  165.1792 C.ar    1  UNL1        0.0742
      6 C         142.5285  141.6077  164.5376 C.ar    1  UNL1        0.0211
      7 C         142.7593  140.2407  165.1102 C.ar    1  UNL1        0.0887
      8 N         141.9980  139.7978  166.3244 N.ar    1  UNL1       -0.2472
      9 C         140.0969  139.9744  170.7561 C.3     1  UNL1        0.0264
     10 C         140.8582  140.4173  169.5419 C.2     1  UNL1       -0.0421
     11 C         142.2332  140.9984  169.6894 C.3     1  UNL1        0.0264
     12 C         140.2446  140.2791  168.1802 C.2     1  UNL1        0.0106
     13 C         141.3056  143.8990  164.6065 C.3     1  UNL1        0.4187
     14 F         141.0748  145.2660  164.0339 F       1  UNL1       -0.1659
     15 F         142.7862  144.0860  164.4562 F       1  UNL1       -0.1659
     16 F         139.8249  143.7120  164.7568 F       1  UNL1       -0.1659
     17 C         142.2309  137.9249  162.8869 C.3     1  UNL1        0.1467
     18 C         141.3327  138.2336  161.7260 C.3     1  UNL1        0.0489
     19 C         142.5907  137.8729  160.9932 C.3     1  UNL1        0.0238
     20 C         142.6220  137.9089  159.4940 C.3     1  UNL1        0.0725
     21 N         141.3951  138.3056  158.7276 N.3     1  UNL1       -0.2715
     22 C         141.4264  138.3416  157.2283 C.3     1  UNL1        0.0896
     23 C         140.1371  138.6664  159.4603 C.3     1  UNL1        0.0725
     24 C         140.1058  138.6304  160.9596 C.3     1  UNL1        0.0238
     25 C         140.3865  138.4872  162.8620 C.ar    1  UNL1       -0.0202
     26 C         140.1603  137.4284  163.9002 C.ar    1  UNL1       -0.0019
     27 C         139.2141  137.6819  165.0362 C.ar    1  UNL1        0.0293
     28 C         138.4942  138.9942  165.1341 C.ar    1  UNL1        0.1401
     29 F         137.5481  139.2478  166.2701 F       1  UNL1       -0.2042
     30 C         138.7205  140.0531  164.0959 C.ar    1  UNL1        0.0293
     31 C         139.6666  139.7994  162.9599 C.ar    1  UNL1       -0.0019
@<TRIPOS>BOND
     1     9    10    1
     2    10    11    1
     3    10    12    2
     4    12     3    1
     5     3     4   ar
     6     4     5   ar
     7     5    13    1
     8    13    14    1
     9    13    15    1
    10    13    16    1
    11     5     6   ar
    12     6     7   ar
    13     7     2    1
    14     2     1    1
    15     1    17    1
    16    17    18    1
    17    18    25    1
    18    25    26   ar
    19    26    27   ar
    20    27    28   ar
    21    28    29    1
    22    28    30   ar
    23    30    31   ar
    24    18    19    1
    25    19    20    1
    26    20    21    1
    27    21    22    1
    28    21    23    1
    29    23    24    1
    30     7     8   ar
    31     8     3   ar
    32    24    18    1
    33    31    25   ar
