@<TRIPOS>MOLECULE
*****
 31 35 0 0 0
SMALL
GASTEIGER

@<TRIPOS>ATOM
      1 C         139.0749  142.0536  160.0952 C.ar    1  UNL1        0.0015
      2 C         139.9018  140.8022  160.1090 C.ar    1  UNL1        0.0032
      3 C         139.7021  139.7831  161.1914 C.ar    1  UNL1        0.0369
      4 C         138.6753  140.0155  162.2601 C.ar    1  UNL1        0.1384
      5 C         137.8484  141.2669  162.2462 C.ar    1  UNL1        0.0369
      6 C         138.0482  142.2859  161.1637 C.ar    1  UNL1        0.0032
      7 C         140.7909  144.4619  160.6004 C.3     1  UNL1        0.0539
      8 C         140.1327  144.2768  159.2654 C.ar    1  UNL1        0.0796
      9 N         140.3325  145.2957  158.1829 N.ar    1  UNL1       -0.1656
     10 N         139.6743  145.1106  156.8478 N.ar    1  UNL1       -0.1770
     11 C         138.8163  143.9065  156.5952 C.ar    1  UNL1        0.2818
     12 O         138.1580  143.7213  155.2601 O.2     1  UNL1       -0.2651
     13 C         138.6165  142.8875  157.6776 C.ar    1  UNL1        0.0638
     14 C         139.2747  143.0726  159.0127 C.ar    1  UNL1        0.0201
     15 C         139.8741  146.1296  155.7654 C.ar    1  UNL1        0.1669
     16 C         139.1625  147.4482  155.8360 C.ar    1  UNL1        0.0389
     17 C         139.3622  148.4672  154.7537 C.ar    1  UNL1        0.0047
     18 C         140.2737  148.1677  153.6005 C.ar    1  UNL1        0.0208
     19 C         140.9853  146.8492  153.5298 C.ar    1  UNL1        0.1006
     20 N         140.7855  145.8301  154.6123 N.ar    1  UNL1       -0.2249
     21 O         138.4756  138.9964  163.3424 O.3     1  UNL1       -0.4791
     22 C         138.8874  139.3077  164.7508 C.3     1  UNL1        0.1687
     23 C         138.0186  138.8830  165.8975 C.3     1  UNL1        0.0609
     24 C         138.4305  139.1942  167.3059 C.3     1  UNL1        0.0758
     25 N         139.7110  139.9301  167.5676 N.3     1  UNL1       -0.2737
     26 C         140.5797  140.3549  166.4209 C.3     1  UNL1        0.0758
     27 C         140.1679  140.0436  165.0125 C.3     1  UNL1        0.0609
     28 C         140.1228  140.2414  168.9760 C.3     1  UNL1        0.0575
     29 C         139.6322  141.1748  170.0429 C.3     1  UNL1        0.0160
     30 C         140.7052  140.6815  170.9677 C.3     1  UNL1        0.0028
     31 C         141.1958  139.7481  169.9009 C.3     1  UNL1        0.0160
@<TRIPOS>BOND
     1     7     8    1
     2     8     9   ar
     3     9    10   ar
     4    10    15    1
     5    15    16   ar
     6    16    17   ar
     7    17    18   ar
     8    18    19   ar
     9    19    20   ar
    10    10    11   ar
    11    11    12    2
    12    11    13   ar
    13    13    14   ar
    14    14     1    1
    15     1     2   ar
    16     2     3   ar
    17     3     4   ar
    18     4    21    1
    19    21    22    1
    20    22    23    1
    21    23    24    1
    22    24    25    1
    23    25    28    1
    24    28    29    1
    25    29    30    1
    26    30    31    1
    27    25    26    1
    28    26    27    1
    29     4     5   ar
    30     5     6   ar
    31    14     8   ar
    32     6     1   ar
    33    20    15   ar
    34    27    22    1
    35    31    28    1
@<TRIPOS>MOLECULE
*****
 31 35 0 0 0
SMALL
GASTEIGER

@<TRIPOS>ATOM
      1 C         140.6506  139.4862  161.3695 C.ar    1  UNL1        0.0015
      2 C         141.8637  139.9319  160.6081 C.ar    1  UNL1        0.0032
      3 C         142.0115  139.5769  159.1582 C.ar    1  UNL1        0.0369
      4 C         140.9461  138.7763  158.4697 C.ar    1  UNL1        0.1384
      5 C         139.7330  138.3305  159.2311 C.ar    1  UNL1        0.0369
      6 C         139.5853  138.6855  160.6811 C.ar    1  UNL1        0.0032
      7 C         141.8051  137.6918  163.4784 C.3     1  UNL1        0.0539
      8 C         141.0801  138.9440  163.8738 C.ar    1  UNL1        0.0796
      9 N         140.9323  139.2990  165.3237 N.ar    1  UNL1       -0.1656
     10 N         140.2073  140.5512  165.7191 N.ar    1  UNL1       -0.1770
     11 C         139.6301  141.4484  164.6647 C.ar    1  UNL1        0.2818
     12 O         138.9051  142.7006  165.0602 O.2     1  UNL1       -0.2651
     13 C         139.7779  141.0934  163.2149 C.ar    1  UNL1        0.0638
     14 C         140.5028  139.8412  162.8194 C.ar    1  UNL1        0.0201
     15 C         140.0596  140.9061  167.1691 C.ar    1  UNL1        0.1669
     16 C         139.3102  139.9919  168.0924 C.ar    1  UNL1        0.0389
     17 C         139.1625  140.3468  169.5423 C.ar    1  UNL1        0.0047
     18 C         139.7641  141.6161  170.0689 C.ar    1  UNL1        0.0208
     19 C         140.5135  142.5303  169.1455 C.ar    1  UNL1        0.1006
     20 N         140.6612  142.1753  167.6956 N.ar    1  UNL1       -0.2249
     21 O         141.0939  138.4213  157.0199 O.3     1  UNL1       -0.4791
     22 C         141.6352  137.0784  156.6278 C.3     1  UNL1        0.1687
     23 C         142.9283  136.5915  157.2115 C.3     1  UNL1        0.0609
     24 C         143.4696  135.2487  156.8195 C.3     1  UNL1        0.0758
     25 N         142.7177  134.3927  155.8438 N.3     1  UNL1       -0.2737
     26 C         141.4246  134.8796  155.2601 C.3     1  UNL1        0.0758
     27 C         140.8833  136.2224  155.6522 C.3     1  UNL1        0.0609
     28 C         143.2590  133.0498  155.4518 C.3     1  UNL1        0.0575
     29 C         144.2861  132.1140  156.0171 C.3     1  UNL1        0.0160
     30 C         144.0245  131.1507  154.8974 C.3     1  UNL1        0.0028
     31 C         142.9975  132.0864  154.3321 C.3     1  UNL1        0.0160
@<TRIPOS>BOND
     1     7     8    1
     2     8     9   ar
     3     9    10   ar
     4    10    15    1
     5    15    16   ar
     6    16    17   ar
     7    17    18   ar
     8    18    19   ar
     9    19    20   ar
    10    10    11   ar
    11    11    12    2
    12    11    13   ar
    13    13    14   ar
    14    14     1    1
    15     1     2   ar
    16     2     3   ar
    17     3     4   ar
    18     4    21    1
    19    21    22    1
    20    22    23    1
    21    23    24    1
    22    24    25    1
    23    25    28    1
    24    28    29    1
    25    29    30    1
    26    30    31    1
    27    25    26    1
    28    26    27    1
    29     4     5   ar
    30     5     6   ar
    31    14     8   ar
    32     6     1   ar
    33    20    15   ar
    34    27    22    1
    35    31    28    1
@<TRIPOS>MOLECULE
*****
 31 35 0 0 0
SMALL
GASTEIGER

@<TRIPOS>ATOM
      1 C         140.7607  138.8708  158.7353 C.ar    1  UNL1        0.0015
      2 C         142.2028  138.5199  158.5184 C.ar    1  UNL1        0.0032
      3 C         142.5834  137.5389  157.4494 C.ar    1  UNL1        0.0369
      4 C         141.5218  136.9086  156.5974 C.ar    1  UNL1        0.1384
      5 C         140.0796  137.2595  156.8144 C.ar    1  UNL1        0.0369
      6 C         139.6991  138.2406  157.8834 C.ar    1  UNL1        0.0032
      7 C         140.7733  138.0311  161.6154 C.3     1  UNL1        0.0539
      8 C         140.3864  139.4320  161.2443 C.ar    1  UNL1        0.0796
      9 N         140.0059  140.4131  162.3132 N.ar    1  UNL1       -0.1656
     10 N         139.6190  141.8141  161.9421 N.ar    1  UNL1       -0.1770
     11 C         139.6127  142.2339  160.5022 C.ar    1  UNL1        0.2818
     12 O         139.2259  143.6349  160.1311 O.2     1  UNL1       -0.2651
     13 C         139.9933  141.2528  159.4332 C.ar    1  UNL1        0.0638
     14 C         140.3801  139.8519  159.8043 C.ar    1  UNL1        0.0201
     15 C         139.2385  142.7952  163.0112 C.ar    1  UNL1        0.1669
     16 C         137.8066  142.9183  163.4408 C.ar    1  UNL1        0.0389
     17 C         137.4261  143.8994  164.5097 C.ar    1  UNL1        0.0047
     18 C         138.4774  144.7573  165.1491 C.ar    1  UNL1        0.0208
     19 C         139.9093  144.6341  164.7195 C.ar    1  UNL1        0.1006
     20 N         140.2898  143.6530  163.6505 N.ar    1  UNL1       -0.2249
     21 O         141.9023  135.9276  155.5285 O.3     1  UNL1       -0.4791
     22 C         142.2736  134.5221  155.8981 C.3     1  UNL1        0.1687
     23 C         141.4930  133.3689  155.3409 C.3     1  UNL1        0.0609
     24 C         141.8643  131.9633  155.7105 C.3     1  UNL1        0.0758
     25 N         143.0163  131.7111  156.6375 N.3     1  UNL1       -0.2737
     26 C         143.7969  132.8643  157.1948 C.3     1  UNL1        0.0758
     27 C         143.4256  134.2698  156.8251 C.3     1  UNL1        0.0609
     28 C         143.3876  130.3055  157.0072 C.3     1  UNL1        0.0575
     29 C         143.2001  128.9579  156.3757 C.3     1  UNL1        0.0160
     30 C         143.9127  128.3179  157.5300 C.3     1  UNL1        0.0028
     31 C         144.1001  129.6654  158.1616 C.3     1  UNL1        0.0160
@<TRIPOS>BOND
     1     7     8    1
     2     8     9   ar
     3     9    10   ar
     4    10    15    1
     5    15    16   ar
     6    16    17   ar
     7    17    18   ar
     8    18    19   ar
     9    19    20   ar
    10    10    11   ar
    11    11    12    2
    12    11    13   ar
    13    13    14   ar
    14    14     1    1
    15     1     2   ar
    16     2     3   ar
    17     3     4   ar
    18     4    21    1
    19    21    22    1
    20    22    23    1
    21    23    24    1
    22    24    25    1
    23    25    28    1
    24    28    29    1
    25    29    30    1
    26    30    31    1
    27    25    26    1
    28    26    27    1
    29     4     5   ar
    30     5     6   ar
    31    14     8   ar
    32     6     1   ar
    33    20    15   ar
    34    27    22    1
    35    31    28    1
@<TRIPOS>MOLECULE
*****
 31 35 0 0 0
SMALL
GASTEIGER

@<TRIPOS>ATOM
      1 C         143.1079  140.4463  157.5521 C.ar    1  UNL1        0.0015
      2 C         143.0856  139.2496  158.4562 C.ar    1  UNL1        0.0032
      3 C         141.8066  138.8363  159.1220 C.ar    1  UNL1        0.0369
      4 C         140.5498  139.6197  158.8837 C.ar    1  UNL1        0.1384
      5 C         140.5721  140.8165  157.9796 C.ar    1  UNL1        0.0369
      6 C         141.8512  141.2297  157.3138 C.ar    1  UNL1        0.0032
      7 C         143.8783  139.2510  154.9106 C.3     1  UNL1        0.0539
      8 C         144.7722  140.2619  155.5656 C.ar    1  UNL1        0.0796
      9 N         146.0512  140.6752  154.8999 N.ar    1  UNL1       -0.1656
     10 N         146.9451  141.6861  155.5549 N.ar    1  UNL1       -0.1770
     11 C         146.5599  142.2838  156.8756 C.ar    1  UNL1        0.2818
     12 O         147.4537  143.2947  157.5306 O.2     1  UNL1       -0.2651
     13 C         145.2808  141.8705  157.5413 C.ar    1  UNL1        0.0638
     14 C         144.3870  140.8596  156.8863 C.ar    1  UNL1        0.0201
     15 C         148.2242  142.0994  154.8891 C.ar    1  UNL1        0.1669
     16 C         149.5318  141.5373  155.3626 C.ar    1  UNL1        0.0389
     17 C         150.8108  141.9505  154.6969 C.ar    1  UNL1        0.0047
     18 C         150.7823  142.9258  153.5576 C.ar    1  UNL1        0.0208
     19 C         149.4747  143.4879  153.0841 C.ar    1  UNL1        0.1006
     20 N         148.1956  143.0747  153.7499 N.ar    1  UNL1       -0.2249
     21 O         139.2708  139.2065  159.5494 O.3     1  UNL1       -0.4791
     22 C         139.1551  139.2506  161.0443 C.3     1  UNL1        0.1687
     23 C         138.9064  137.9879  161.8149 C.3     1  UNL1        0.0609
     24 C         138.7907  138.0321  163.3098 C.3     1  UNL1        0.0758
     25 N         138.9237  139.3388  164.0341 N.3     1  UNL1       -0.2737
     26 C         139.1723  140.6015  163.2635 C.3     1  UNL1        0.0758
     27 C         139.2880  140.5574  161.7686 C.3     1  UNL1        0.0609
     28 C         138.8080  139.3830  165.5290 C.3     1  UNL1        0.0575
     29 C         139.5203  140.1161  166.6268 C.3     1  UNL1        0.0160
     30 C         138.6443  139.4453  167.6430 C.3     1  UNL1        0.0028
     31 C         137.9320  138.7122  166.5453 C.3     1  UNL1        0.0160
@<TRIPOS>BOND
     1     7     8    1
     2     8     9   ar
     3     9    10   ar
     4    10    15    1
     5    15    16   ar
     6    16    17   ar
     7    17    18   ar
     8    18    19   ar
     9    19    20   ar
    10    10    11   ar
    11    11    12    2
    12    11    13   ar
    13    13    14   ar
    14    14     1    1
    15     1     2   ar
    16     2     3   ar
    17     3     4   ar
    18     4    21    1
    19    21    22    1
    20    22    23    1
    21    23    24    1
    22    24    25    1
    23    25    28    1
    24    28    29    1
    25    29    30    1
    26    30    31    1
    27    25    26    1
    28    26    27    1
    29     4     5   ar
    30     5     6   ar
    31    14     8   ar
    32     6     1   ar
    33    20    15   ar
    34    27    22    1
    35    31    28    1
@<TRIPOS>MOLECULE
*****
 31 35 0 0 0
SMALL
GASTEIGER

@<TRIPOS>ATOM
      1 C         142.5340  139.3149  161.9390 C.ar    1  UNL1        0.0015
      2 C         143.7666  139.6214  161.1410 C.ar    1  UNL1        0.0032
      3 C         143.8073  139.3096  159.6744 C.ar    1  UNL1        0.0369
      4 C         142.6153  138.6913  159.0057 C.ar    1  UNL1        0.1384
      5 C         141.3828  138.3848  159.8037 C.ar    1  UNL1        0.0369
      6 C         141.3421  138.6966  161.2704 C.ar    1  UNL1        0.0032
      7 C         141.0557  141.7350  162.9178 C.3     1  UNL1        0.0539
      8 C         141.7542  140.8367  163.8951 C.ar    1  UNL1        0.0796
      9 N         141.7135  141.1484  165.3617 N.ar    1  UNL1       -0.1656
     10 N         142.4120  140.2502  166.3391 N.ar    1  UNL1       -0.1770
     11 C         143.1512  139.0402  165.8498 C.ar    1  UNL1        0.2818
     12 O         143.8497  138.1419  166.8271 O.2     1  UNL1       -0.2651
     13 C         143.1918  138.7284  164.3831 C.ar    1  UNL1        0.0638
     14 C         142.4933  139.6267  163.4058 C.ar    1  UNL1        0.0201
     15 C         142.3714  140.5620  167.8058 C.ar    1  UNL1        0.1669
     16 C         143.1135  141.7507  168.3407 C.ar    1  UNL1        0.0389
     17 C         143.0729  142.0625  169.8073 C.ar    1  UNL1        0.0047
     18 C         142.2901  141.1856  170.7392 C.ar    1  UNL1        0.0208
     19 C         141.5480  139.9968  170.2043 C.ar    1  UNL1        0.1006
     20 N         141.5886  139.6850  168.7376 N.ar    1  UNL1       -0.2249
     21 O         142.6561  138.3796  157.5390 O.3     1  UNL1       -0.4791
     22 C         142.4651  136.9688  157.0666 C.3     1  UNL1        0.1687
     23 C         143.3626  135.8797  157.5748 C.3     1  UNL1        0.0609
     24 C         143.1717  134.4689  157.1023 C.3     1  UNL1        0.0758
     25 N         142.0833  134.1472  156.1216 N.3     1  UNL1       -0.2737
     26 C         141.1858  135.2363  155.6134 C.3     1  UNL1        0.0758
     27 C         141.3767  136.6471  156.0858 C.3     1  UNL1        0.0609
     28 C         141.8924  132.7364  155.6491 C.3     1  UNL1        0.0575
     29 C         141.0428  132.0730  154.6060 C.3     1  UNL1        0.0160
     30 C         141.6224  130.7413  154.9810 C.3     1  UNL1        0.0028
     31 C         142.4721  131.4047  156.0241 C.3     1  UNL1        0.0160
@<TRIPOS>BOND
     1     7     8    1
     2     8     9   ar
     3     9    10   ar
     4    10    15    1
     5    15    16   ar
     6    16    17   ar
     7    17    18   ar
     8    18    19   ar
     9    19    20   ar
    10    10    11   ar
    11    11    12    2
    12    11    13   ar
    13    13    14   ar
    14    14     1    1
    15     1     2   ar
    16     2     3   ar
    17     3     4   ar
    18     4    21    1
    19    21    22    1
    20    22    23    1
    21    23    24    1
    22    24    25    1
    23    25    28    1
    24    28    29    1
    25    29    30    1
    26    30    31    1
    27    25    26    1
    28    26    27    1
    29     4     5   ar
    30     5     6   ar
    31    14     8   ar
    32     6     1   ar
    33    20    15   ar
    34    27    22    1
    35    31    28    1
@<TRIPOS>MOLECULE
*****
 31 35 0 0 0
SMALL
GASTEIGER

@<TRIPOS>ATOM
      1 C         140.0178  141.6315  161.3685 C.ar    1  UNL1        0.0015
      2 C         141.1310  141.5090  160.3706 C.ar    1  UNL1        0.0032
      3 C         140.8896  141.8557  158.9314 C.ar    1  UNL1        0.0369
      4 C         139.5350  142.3249  158.4899 C.ar    1  UNL1        0.1384
      5 C         138.4218  142.4474  159.4877 C.ar    1  UNL1        0.0369
      6 C         138.6632  142.1007  160.9271 C.ar    1  UNL1        0.0032
      7 C         140.9658  143.7397  163.2807 C.3     1  UNL1        0.0539
      8 C         140.7332  142.3389  163.7639 C.ar    1  UNL1        0.0796
      9 N         140.9746  141.9921  165.2031 N.ar    1  UNL1       -0.1656
     10 N         140.7420  140.5912  165.6863 N.ar    1  UNL1       -0.1770
     11 C         140.2679  139.5371  164.7302 C.ar    1  UNL1        0.2818
     12 O         140.0353  138.1363  165.2134 O.2     1  UNL1       -0.2651
     13 C         140.0265  139.8839  163.2910 C.ar    1  UNL1        0.0638
     14 C         140.2592  141.2848  162.8078 C.ar    1  UNL1        0.0201
     15 C         140.9834  140.2445  167.1256 C.ar    1  UNL1        0.1669
     16 C         142.3068  139.6795  167.5491 C.ar    1  UNL1        0.0389
     17 C         142.5482  139.3328  168.9884 C.ar    1  UNL1        0.0047
     18 C         141.4662  139.5511  170.0042 C.ar    1  UNL1        0.0208
     19 C         140.1429  140.1161  169.5806 C.ar    1  UNL1        0.1006
     20 N         139.9014  140.4628  168.1413 N.ar    1  UNL1       -0.2249
     21 O         139.2936  142.6716  157.0506 O.3     1  UNL1       -0.4791
     22 C         139.2478  144.1086  156.6228 C.3     1  UNL1        0.1687
     23 C         140.1620  145.1110  157.2625 C.3     1  UNL1        0.0609
     24 C         140.1162  146.5480  156.8346 C.3     1  UNL1        0.0758
     25 N         139.1562  146.9825  155.7672 N.3     1  UNL1       -0.2737
     26 C         138.2420  145.9800  155.1275 C.3     1  UNL1        0.0758
     27 C         138.2878  144.5430  155.5553 C.3     1  UNL1        0.0609
     28 C         139.1104  148.4194  155.3393 C.3     1  UNL1        0.0575
     29 C         138.4762  149.6671  155.8790 C.3     1  UNL1        0.0160
     30 C         139.0456  150.4516  154.7343 C.3     1  UNL1        0.0028
     31 C         139.6798  149.2040  154.1946 C.3     1  UNL1        0.0160
@<TRIPOS>BOND
     1     7     8    1
     2     8     9   ar
     3     9    10   ar
     4    10    15    1
     5    15    16   ar
     6    16    17   ar
     7    17    18   ar
     8    18    19   ar
     9    19    20   ar
    10    10    11   ar
    11    11    12    2
    12    11    13   ar
    13    13    14   ar
    14    14     1    1
    15     1     2   ar
    16     2     3   ar
    17     3     4   ar
    18     4    21    1
    19    21    22    1
    20    22    23    1
    21    23    24    1
    22    24    25    1
    23    25    28    1
    24    28    29    1
    25    29    30    1
    26    30    31    1
    27    25    26    1
    28    26    27    1
    29     4     5   ar
    30     5     6   ar
    31    14     8   ar
    32     6     1   ar
    33    20    15   ar
    34    27    22    1
    35    31    28    1
@<TRIPOS>MOLECULE
*****
 31 35 0 0 0
SMALL
GASTEIGER

@<TRIPOS>ATOM
      1 C         139.1858  141.9361  160.0474 C.ar    1  UNL1        0.0015
      2 C         138.1745  142.2352  161.1140 C.ar    1  UNL1        0.0032
      3 C         137.9297  141.2455  162.2142 C.ar    1  UNL1        0.0369
      4 C         138.6962  139.9565  162.2478 C.ar    1  UNL1        0.1384
      5 C         139.7075  139.6573  161.1811 C.ar    1  UNL1        0.0369
      6 C         139.9523  140.6472  160.0809 C.ar    1  UNL1        0.0032
      7 C         137.5493  141.8222  157.5356 C.3     1  UNL1        0.0539
      8 C         138.6124  142.8690  157.6913 C.ar    1  UNL1        0.0796
      9 N         138.8573  143.8587  156.5912 N.ar    1  UNL1       -0.1656
     10 N         139.9204  144.9054  156.7469 N.ar    1  UNL1       -0.1770
     11 C         140.7386  144.9624  158.0027 C.ar    1  UNL1        0.2818
     12 O         141.8017  146.0091  158.1585 O.2     1  UNL1       -0.2651
     13 C         140.4938  143.9726  159.1029 C.ar    1  UNL1        0.0638
     14 C         139.4307  142.9259  158.9472 C.ar    1  UNL1        0.0201
     15 C         140.1652  145.8953  155.6467 C.ar    1  UNL1        0.1669
     16 C         141.0350  145.5229  154.4827 C.ar    1  UNL1        0.0389
     17 C         141.2799  146.5126  153.3826 C.ar    1  UNL1        0.0047
     18 C         140.6549  147.8748  153.4463 C.ar    1  UNL1        0.0208
     19 C         139.7850  148.2471  154.6102 C.ar    1  UNL1        0.1006
     20 N         139.5402  147.2573  155.7104 N.ar    1  UNL1       -0.2249
     21 O         138.4513  138.9668  163.3480 O.3     1  UNL1       -0.4791
     22 C         138.8834  139.2812  164.7495 C.3     1  UNL1        0.1687
     23 C         140.1947  139.9672  164.9941 C.3     1  UNL1        0.0609
     24 C         140.6268  140.2817  166.3957 C.3     1  UNL1        0.0758
     25 N         139.7475  139.9101  167.5527 N.3     1  UNL1       -0.2737
     26 C         138.4362  139.2241  167.3082 C.3     1  UNL1        0.0758
     27 C         138.0041  138.9097  165.9066 C.3     1  UNL1        0.0609
     28 C         140.1796  140.2246  168.9543 C.3     1  UNL1        0.0575
     29 C         139.6253  141.0546  170.0741 C.3     1  UNL1        0.0160
     30 C         140.7906  140.6692  170.9364 C.3     1  UNL1        0.0028
     31 C         141.3449  139.8393  169.8167 C.3     1  UNL1        0.0160
@<TRIPOS>BOND
     1     7     8    1
     2     8     9   ar
     3     9    10   ar
     4    10    15    1
     5    15    16   ar
     6    16    17   ar
     7    17    18   ar
     8    18    19   ar
     9    19    20   ar
    10    10    11   ar
    11    11    12    2
    12    11    13   ar
    13    13    14   ar
    14    14     1    1
    15     1     2   ar
    16     2     3   ar
    17     3     4   ar
    18     4    21    1
    19    21    22    1
    20    22    23    1
    21    23    24    1
    22    24    25    1
    23    25    28    1
    24    28    29    1
    25    29    30    1
    26    30    31    1
    27    25    26    1
    28    26    27    1
    29     4     5   ar
    30     5     6   ar
    31    14     8   ar
    32     6     1   ar
    33    20    15   ar
    34    27    22    1
    35    31    28    1
@<TRIPOS>MOLECULE
*****
 31 35 0 0 0
SMALL
GASTEIGER

@<TRIPOS>ATOM
      1 C         142.3173  138.9004  159.8848 C.ar    1  UNL1        0.0015
      2 C         140.8660  139.2564  160.0154 C.ar    1  UNL1        0.0032
      3 C         140.0727  138.7534  161.1848 C.ar    1  UNL1        0.0369
      4 C         140.7306  137.8944  162.2237 C.ar    1  UNL1        0.1384
      5 C         142.1819  137.5385  162.0931 C.ar    1  UNL1        0.0369
      6 C         142.9752  138.0415  160.9236 C.ar    1  UNL1        0.0032
      7 C         142.3676  137.3394  157.3234 C.3     1  UNL1        0.0539
      8 C         143.1357  138.6230  157.4346 C.ar    1  UNL1        0.0796
      9 N         143.9290  139.1260  156.2652 N.ar    1  UNL1       -0.1656
     10 N         144.6972  140.4096  156.3764 N.ar    1  UNL1       -0.1770
     11 C         144.6720  141.1901  157.6571 C.ar    1  UNL1        0.2818
     12 O         145.4402  142.4737  157.7683 O.2     1  UNL1       -0.2651
     13 C         143.8787  140.6871  158.8265 C.ar    1  UNL1        0.0638
     14 C         143.1106  139.4035  158.7153 C.ar    1  UNL1        0.0201
     15 C         145.4905  140.9126  155.2069 C.ar    1  UNL1        0.1669
     16 C         146.9160  141.3395  155.3956 C.ar    1  UNL1        0.0389
     17 C         147.7093  141.8425  154.2262 C.ar    1  UNL1        0.0047
     18 C         147.0771  141.9187  152.8680 C.ar    1  UNL1        0.0208
     19 C         145.6516  141.4918  152.6793 C.ar    1  UNL1        0.1006
     20 N         144.8583  140.9888  153.8489 N.ar    1  UNL1       -0.2249
     21 O         139.9373  137.3914  163.3931 O.3     1  UNL1       -0.4791
     22 C         139.8786  138.1926  164.6599 C.3     1  UNL1        0.1687
     23 C         141.0941  138.9301  165.1380 C.3     1  UNL1        0.0609
     24 C         141.0353  139.7312  166.4047 C.3     1  UNL1        0.0758
     25 N         139.7611  139.7950  167.1934 N.3     1  UNL1       -0.2737
     26 C         138.5455  139.0575  166.7154 C.3     1  UNL1        0.0758
     27 C         138.6043  138.2563  165.4486 C.3     1  UNL1        0.0609
     28 C         139.7023  140.5961  168.4602 C.3     1  UNL1        0.0575
     29 C         140.2630  141.9130  168.9093 C.3     1  UNL1        0.0160
     30 C         139.6192  141.7292  170.2516 C.3     1  UNL1        0.0028
     31 C         139.0585  140.4124  169.8025 C.3     1  UNL1        0.0160
@<TRIPOS>BOND
     1     7     8    1
     2     8     9   ar
     3     9    10   ar
     4    10    15    1
     5    15    16   ar
     6    16    17   ar
     7    17    18   ar
     8    18    19   ar
     9    19    20   ar
    10    10    11   ar
    11    11    12    2
    12    11    13   ar
    13    13    14   ar
    14    14     1    1
    15     1     2   ar
    16     2     3   ar
    17     3     4   ar
    18     4    21    1
    19    21    22    1
    20    22    23    1
    21    23    24    1
    22    24    25    1
    23    25    28    1
    24    28    29    1
    25    29    30    1
    26    30    31    1
    27    25    26    1
    28    26    27    1
    29     4     5   ar
    30     5     6   ar
    31    14     8   ar
    32     6     1   ar
    33    20    15   ar
    34    27    22    1
    35    31    28    1
@<TRIPOS>MOLECULE
*****
 31 35 0 0 0
SMALL
GASTEIGER

@<TRIPOS>ATOM
      1 C         143.0226  139.7686  159.9319 C.ar    1  UNL1        0.0015
      2 C         141.5923  140.1319  160.2008 C.ar    1  UNL1        0.0032
      3 C         140.8464  139.4650  161.3183 C.ar    1  UNL1        0.0369
      4 C         141.5308  138.4348  162.1670 C.ar    1  UNL1        0.1384
      5 C         142.9611  138.0715  161.8981 C.ar    1  UNL1        0.0369
      6 C         143.7070  138.7384  160.7805 C.ar    1  UNL1        0.0032
      7 C         144.3615  142.4138  160.3907 C.3     1  UNL1        0.0539
      8 C         144.4379  141.7581  159.0438 C.ar    1  UNL1        0.0796
      9 N         145.1837  142.4250  157.9262 N.ar    1  UNL1       -0.1656
     10 N         145.2601  141.7694  156.5793 N.ar    1  UNL1       -0.1770
     11 C         144.5906  140.4468  156.3498 C.ar    1  UNL1        0.2818
     12 O         144.6670  139.7912  155.0029 O.2     1  UNL1       -0.2651
     13 C         143.8448  139.7799  157.4674 C.ar    1  UNL1        0.0638
     14 C         143.7684  140.4356  158.8143 C.ar    1  UNL1        0.0201
     15 C         146.0060  142.4363  155.4617 C.ar    1  UNL1        0.1669
     16 C         147.4712  142.1742  155.2765 C.ar    1  UNL1        0.0389
     17 C         148.2171  142.8411  154.1590 C.ar    1  UNL1        0.0047
     18 C         147.4977  143.7702  153.2266 C.ar    1  UNL1        0.0208
     19 C         146.0324  144.0323  153.4117 C.ar    1  UNL1        0.1006
     20 N         145.2866  143.3654  154.5293 N.ar    1  UNL1       -0.2249
     21 O         140.7849  137.7679  163.2845 O.3     1  UNL1       -0.4791
     22 C         140.5609  138.4964  164.5764 C.3     1  UNL1        0.1687
     23 C         141.7319  139.0078  165.3620 C.3     1  UNL1        0.0609
     24 C         141.5079  139.7363  166.6539 C.3     1  UNL1        0.0758
     25 N         140.1128  139.9534  167.1603 N.3     1  UNL1       -0.2737
     26 C         138.9417  139.4420  166.3748 C.3     1  UNL1        0.0758
     27 C         139.1658  138.7135  165.0828 C.3     1  UNL1        0.0609
     28 C         139.8887  140.6819  168.4522 C.3     1  UNL1        0.0575
     29 C         140.3145  142.0077  169.0100 C.3     1  UNL1        0.0160
     30 C         139.5718  141.7122  170.2792 C.3     1  UNL1        0.0028
     31 C         139.1460  140.3864  169.7216 C.3     1  UNL1        0.0160
@<TRIPOS>BOND
     1     7     8    1
     2     8     9   ar
     3     9    10   ar
     4    10    15    1
     5    15    16   ar
     6    16    17   ar
     7    17    18   ar
     8    18    19   ar
     9    19    20   ar
    10    10    11   ar
    11    11    12    2
    12    11    13   ar
    13    13    14   ar
    14    14     1    1
    15     1     2   ar
    16     2     3   ar
    17     3     4   ar
    18     4    21    1
    19    21    22    1
    20    22    23    1
    21    23    24    1
    22    24    25    1
    23    25    28    1
    24    28    29    1
    25    29    30    1
    26    30    31    1
    27    25    26    1
    28    26    27    1
    29     4     5   ar
    30     5     6   ar
    31    14     8   ar
    32     6     1   ar
    33    20    15   ar
    34    27    22    1
    35    31    28    1
