@<TRIPOS>MOLECULE
*****
 39 42 0 0 0
SMALL
GASTEIGER

@<TRIPOS>ATOM
      1 C         141.3918  140.6971  162.3750 C.3     1  UNL1        0.1043
      2 C         139.1009  140.7328  161.1499 C.ar    1  UNL1        0.0508
      3 C         137.8125  140.0572  160.7847 C.ar    1  UNL1        0.0145
      4 C         137.5264  138.6703  161.2792 C.ar    1  UNL1        0.0013
      5 C         138.5288  137.9590  162.1390 C.ar    1  UNL1       -0.0002
      6 C         139.8172  138.6346  162.5043 C.ar    1  UNL1       -0.0014
      7 C         140.1033  140.0215  162.0097 C.ar    1  UNL1        0.0100
      8 C         138.9160  143.3080  161.4403 C.2     1  UNL1        0.4054
      9 O         138.1588  143.1093  162.7200 O.2     1  UNL1       -0.2261
     10 N         139.3870  142.1197  160.6554 N.am    1  UNL1       -0.2502
     11 H         139.8839  142.2502  159.8155 H       1  UNL1        0.1582
     12 O         139.2021  144.6949  160.9458 O.3     1  UNL1       -0.4345
     13 C         140.9151  145.3521  162.7853 C.3     1  UNL1        0.0513
     14 C         140.4664  145.3910  161.3545 C.3     1  UNL1        0.2102
     15 C         141.7256  140.9466  163.8159 C.ar    1  UNL1       -0.0036
     16 C         142.7418  140.0887  164.5098 C.ar    1  UNL1       -0.0025
     17 C         143.0757  140.3381  165.9507 C.ar    1  UNL1        0.0042
     18 C         142.3932  141.4455  166.6978 C.ar    1  UNL1        0.0536
     19 C         141.3770  142.3033  166.0040 C.ar    1  UNL1        0.0042
     20 C         141.0432  142.0538  164.5631 C.ar    1  UNL1       -0.0025
     21 C         142.7270  141.6949  168.1388 C.2     1  UNL1        0.2490
     22 O         143.7690  142.7108  168.5023 O.2     1  UNL1       -0.2699
     23 N         142.0188  140.9284  169.2163 N.am    1  UNL1       -0.2761
     24 C         142.3526  141.1778  170.6573 C.3     1  UNL1        0.0938
     25 C         141.3063  141.7169  171.5870 C.3     1  UNL1        0.0233
     26 C         140.9768  139.9124  168.8528 C.3     1  UNL1        0.0938
     27 C         139.5459  140.3313  168.6891 C.3     1  UNL1        0.0233
     28 N         142.3464  141.1233  161.2993 N.3     1  UNL1       -0.2643
     29 C         142.7510  140.1539  160.2285 C.3     1  UNL1        0.0901
     30 C         143.7057  140.5800  159.1529 C.3     1  UNL1        0.0900
     31 N         144.2557  141.9755  159.1480 N.3     1  UNL1       -0.2652
     32 C         143.8511  142.9449  160.2187 C.3     1  UNL1        0.0900
     33 C         142.8964  142.5188  161.2945 C.3     1  UNL1        0.0901
     34 C         145.2103  142.4016  158.0723 C.3     1  UNL1        0.1193
     35 C         145.0327  141.8997  156.6699 C.ar    1  UNL1        0.0823
     36 C         146.0401  141.1197  155.8784 C.ar    1  UNL1        0.0530
     37 S         145.4465  140.8277  154.5322 S.2     1  UNL1       -0.0643
     38 C         144.0720  141.4273  154.4917 C.ar    1  UNL1        0.1341
     39 N         143.8164  142.0898  155.8129 N.ar    1  UNL1       -0.2392
@<TRIPOS>BOND
     1    13    14    1
     2    14    12    1
     3    12     8    1
     4     8     9    2
     5     8    10   am
     6    10     2    1
     7     2     3   ar
     8     3     4   ar
     9     4     5   ar
    10     5     6   ar
    11     6     7   ar
    12     7     1    1
    13     1    15    1
    14    15    16   ar
    15    16    17   ar
    16    17    18   ar
    17    18    21    1
    18    21    22    2
    19    21    23   am
    20    23    24    1
    21    24    25    1
    22    23    26    1
    23    26    27    1
    24    18    19   ar
    25    19    20   ar
    26     1    28    1
    27    28    29    1
    28    29    30    1
    29    30    31    1
    30    31    34    1
    31    34    35    1
    32    35    36   ar
    33    36    37   ar
    34    37    38   ar
    35    38    39   ar
    36    31    32    1
    37    32    33    1
    38     7     2   ar
    39    20    15   ar
    40    33    28    1
    41    39    35   ar
    42    10    11    1
@<TRIPOS>MOLECULE
*****
 39 42 0 0 0
SMALL
GASTEIGER

@<TRIPOS>ATOM
      1 C         141.5418  141.8314  162.5439 C.3     1  UNL1        0.1043
      2 C         139.2088  142.9712  162.6357 C.ar    1  UNL1        0.0508
      3 C         138.3647  144.2094  162.5722 C.ar    1  UNL1        0.0145
      4 C         139.0091  145.5461  162.3533 C.ar    1  UNL1        0.0013
      5 C         140.4978  145.6446  162.1979 C.ar    1  UNL1       -0.0002
      6 C         141.3420  144.4064  162.2614 C.ar    1  UNL1       -0.0014
      7 C         140.6975  143.0697  162.4803 C.ar    1  UNL1        0.0100
      8 C         138.0507  140.8489  161.6846 C.2     1  UNL1        0.4054
      9 O         138.1816  141.4000  160.2956 O.2     1  UNL1       -0.2261
     10 N         138.5644  141.6345  162.8546 N.am    1  UNL1       -0.2502
     11 H         138.4785  141.2728  163.7662 H       1  UNL1        0.1582
     12 O         137.4063  139.5122  161.9035 O.3     1  UNL1       -0.4345
     13 C         139.5974  138.3282  161.1638 C.3     1  UNL1        0.0513
     14 C         138.2007  138.2552  161.7059 C.3     1  UNL1        0.2102
     15 C         142.0964  141.2364  161.2836 C.ar    1  UNL1       -0.0036
     16 C         141.5290  141.6345  159.9533 C.ar    1  UNL1       -0.0025
     17 C         142.0836  141.0395  158.6930 C.ar    1  UNL1        0.0042
     18 C         143.2057  140.0464  158.7630 C.ar    1  UNL1        0.0536
     19 C         143.7730  139.6483  160.0932 C.ar    1  UNL1        0.0042
     20 C         143.2184  140.2433  161.3535 C.ar    1  UNL1       -0.0025
     21 C         143.7603  139.4514  157.5027 C.2     1  UNL1        0.2490
     22 O         144.9207  140.1046  156.8123 O.2     1  UNL1       -0.2699
     23 N         143.1545  138.2030  156.9328 N.am    1  UNL1       -0.2761
     24 C         143.7091  137.6080  155.6725 C.3     1  UNL1        0.0938
     25 C         144.0506  136.1484  155.6192 C.3     1  UNL1        0.0233
     26 C         141.9941  137.5498  157.6231 C.3     1  UNL1        0.0938
     27 C         140.5908  137.9046  157.2296 C.3     1  UNL1        0.0233
     28 N         141.8313  141.1882  163.8676 N.3     1  UNL1       -0.2643
     29 C         141.2325  139.8537  164.2001 C.3     1  UNL1        0.0901
     30 C         141.5220  139.2104  165.5238 C.3     1  UNL1        0.0900
     31 N         142.4105  139.9017  166.5152 N.3     1  UNL1       -0.2652
     32 C         143.0094  141.2362  166.1828 C.3     1  UNL1        0.0900
     33 C         142.7198  141.8794  164.8590 C.3     1  UNL1        0.0901
     34 C         142.7001  139.2585  167.8389 C.3     1  UNL1        0.1193
     35 C         142.1486  139.8557  169.0996 C.ar    1  UNL1        0.0823
     36 C         142.8393  140.8582  169.9760 C.ar    1  UNL1        0.0530
     37 S         141.9271  141.1773  171.1232 S.2     1  UNL1       -0.0643
     38 C         140.6727  140.3720  170.9559 C.ar    1  UNL1        0.1341
     39 N         140.8096  139.5552  169.7053 N.ar    1  UNL1       -0.2392
@<TRIPOS>BOND
     1    13    14    1
     2    14    12    1
     3    12     8    1
     4     8     9    2
     5     8    10   am
     6    10     2    1
     7     2     3   ar
     8     3     4   ar
     9     4     5   ar
    10     5     6   ar
    11     6     7   ar
    12     7     1    1
    13     1    15    1
    14    15    16   ar
    15    16    17   ar
    16    17    18   ar
    17    18    21    1
    18    21    22    2
    19    21    23   am
    20    23    24    1
    21    24    25    1
    22    23    26    1
    23    26    27    1
    24    18    19   ar
    25    19    20   ar
    26     1    28    1
    27    28    29    1
    28    29    30    1
    29    30    31    1
    30    31    34    1
    31    34    35    1
    32    35    36   ar
    33    36    37   ar
    34    37    38   ar
    35    38    39   ar
    36    31    32    1
    37    32    33    1
    38     7     2   ar
    39    20    15   ar
    40    33    28    1
    41    39    35   ar
    42    10    11    1
@<TRIPOS>MOLECULE
*****
 39 42 0 0 0
SMALL
GASTEIGER

@<TRIPOS>ATOM
      1 C         140.8351  141.5073  161.9741 C.3     1  UNL1        0.1043
      2 C         141.1908  143.7863  160.7785 C.ar    1  UNL1        0.0508
      3 C         140.8481  145.2381  160.6211 C.ar    1  UNL1        0.0145
      4 C         139.8069  145.8627  161.5019 C.ar    1  UNL1        0.0013
      5 C         139.1084  145.0355  162.5401 C.ar    1  UNL1       -0.0002
      6 C         139.4512  143.5838  162.6975 C.ar    1  UNL1       -0.0014
      7 C         140.4924  142.9592  161.8167 C.ar    1  UNL1        0.0100
      8 C         143.6624  143.1120  160.3466 C.2     1  UNL1        0.4054
      9 O         144.0516  143.6870  161.6763 O.2     1  UNL1       -0.2261
     10 N         142.2320  143.1617  159.8977 N.am    1  UNL1       -0.2502
     11 H         141.9766  142.7844  159.0250 H       1  UNL1        0.1582
     12 O         144.7036  142.4874  159.4658 O.3     1  UNL1       -0.4345
     13 C         144.5676  140.7948  157.4994 C.3     1  UNL1        0.0513
     14 C         144.3891  142.1863  158.0303 C.3     1  UNL1        0.2102
     15 C         141.2387  140.9733  163.3165 C.ar    1  UNL1       -0.0036
     16 C         140.5485  139.7676  163.8824 C.ar    1  UNL1       -0.0025
     17 C         140.9521  139.2336  165.2248 C.ar    1  UNL1        0.0042
     18 C         142.0459  139.9052  166.0012 C.ar    1  UNL1        0.0536
     19 C         142.7359  141.1108  165.4353 C.ar    1  UNL1        0.0042
     20 C         142.3323  141.6448  164.0929 C.ar    1  UNL1       -0.0025
     21 C         142.4495  139.3712  167.3435 C.2     1  UNL1        0.2490
     22 O         143.6182  138.4381  167.4590 O.2     1  UNL1       -0.2699
     23 N         141.6843  139.7703  168.5705 N.am    1  UNL1       -0.2761
     24 C         142.0879  139.2363  169.9128 C.3     1  UNL1        0.0938
     25 C         143.0352  140.0155  170.7761 C.3     1  UNL1        0.0233
     26 C         140.5156  140.7034  168.4550 C.3     1  UNL1        0.0938
     27 C         139.3541  140.5706  169.3949 C.3     1  UNL1        0.0233
     28 N         140.7742  140.5895  160.7892 N.3     1  UNL1       -0.2643
     29 C         139.5438  140.5522  159.9319 C.3     1  UNL1        0.0901
     30 C         139.4829  139.6345  158.7470 C.3     1  UNL1        0.0900
     31 N         140.6523  138.7540  158.4194 N.3     1  UNL1       -0.2652
     32 C         141.8826  138.7913  159.2767 C.3     1  UNL1        0.0900
     33 C         141.9435  139.7091  160.4617 C.3     1  UNL1        0.0901
     34 C         140.5914  137.8363  157.2345 C.3     1  UNL1        0.1193
     35 C         141.8586  137.3693  156.5816 C.ar    1  UNL1        0.0823
     36 C         142.4495  135.9946  156.6858 C.ar    1  UNL1        0.0530
     37 S         143.7134  135.9709  155.8784 S.2     1  UNL1       -0.0643
     38 C         143.9037  137.3310  155.2751 C.ar    1  UNL1        0.1341
     39 N         142.7574  138.1953  155.7097 N.ar    1  UNL1       -0.2392
@<TRIPOS>BOND
     1    13    14    1
     2    14    12    1
     3    12     8    1
     4     8     9    2
     5     8    10   am
     6    10     2    1
     7     2     3   ar
     8     3     4   ar
     9     4     5   ar
    10     5     6   ar
    11     6     7   ar
    12     7     1    1
    13     1    15    1
    14    15    16   ar
    15    16    17   ar
    16    17    18   ar
    17    18    21    1
    18    21    22    2
    19    21    23   am
    20    23    24    1
    21    24    25    1
    22    23    26    1
    23    26    27    1
    24    18    19   ar
    25    19    20   ar
    26     1    28    1
    27    28    29    1
    28    29    30    1
    29    30    31    1
    30    31    34    1
    31    34    35    1
    32    35    36   ar
    33    36    37   ar
    34    37    38   ar
    35    38    39   ar
    36    31    32    1
    37    32    33    1
    38     7     2   ar
    39    20    15   ar
    40    33    28    1
    41    39    35   ar
    42    10    11    1
@<TRIPOS>MOLECULE
*****
 39 42 0 0 0
SMALL
GASTEIGER

@<TRIPOS>ATOM
      1 C         141.5912  141.8115  162.1714 C.3     1  UNL1        0.1043
      2 C         139.6776  143.3432  163.0330 C.ar    1  UNL1        0.0508
      3 C         138.9576  144.6588  163.0120 C.ar    1  UNL1        0.0145
      4 C         139.4310  145.7586  162.1084 C.ar    1  UNL1        0.0013
      5 C         140.6245  145.5427  161.2259 C.ar    1  UNL1       -0.0002
      6 C         141.3446  144.2270  161.2469 C.ar    1  UNL1       -0.0014
      7 C         140.8711  143.1273  162.1505 C.ar    1  UNL1        0.0100
      8 C         138.0686  141.3603  163.5116 C.2     1  UNL1        0.4054
      9 O         137.4064  141.5769  162.1832 O.2     1  UNL1       -0.2261
     10 N         139.2041  142.2434  163.9365 N.am    1  UNL1       -0.2502
     11 H         139.6387  142.1012  164.8084 H       1  UNL1        0.1582
     12 O         137.5951  140.2605  164.4152 O.3     1  UNL1       -0.4345
     13 C         137.9345  138.7776  166.5214 C.3     1  UNL1        0.0513
     14 C         138.3741  139.9169  165.6502 C.3     1  UNL1        0.2102
     15 C         141.9878  141.1530  160.8834 C.ar    1  UNL1       -0.0036
     16 C         143.4384  141.0141  160.5276 C.ar    1  UNL1       -0.0025
     17 C         143.8350  140.3556  159.2395 C.ar    1  UNL1        0.0042
     18 C         142.7809  139.8360  158.3073 C.ar    1  UNL1        0.0536
     19 C         141.3304  139.9748  158.6631 C.ar    1  UNL1        0.0042
     20 C         140.9338  140.6333  159.9511 C.ar    1  UNL1       -0.0025
     21 C         143.1775  139.1774  157.0192 C.2     1  UNL1        0.2490
     22 O         143.4257  137.6987  156.9782 O.2     1  UNL1       -0.2699
     23 N         143.3258  139.9977  155.7721 N.am    1  UNL1       -0.2761
     24 C         143.7224  139.3392  154.4840 C.3     1  UNL1        0.0938
     25 C         145.0943  139.5610  153.9196 C.3     1  UNL1        0.0233
     26 C         143.0776  141.4764  155.8131 C.3     1  UNL1        0.0938
     27 C         144.2106  142.4197  156.0898 C.3     1  UNL1        0.0233
     28 N         141.9147  141.1544  163.4804 N.3     1  UNL1       -0.2643
     29 C         141.5542  139.7160  163.7069 C.3     1  UNL1        0.0901
     30 C         141.8777  139.0588  165.0158 C.3     1  UNL1        0.0900
     31 N         142.5617  139.8400  166.0984 N.3     1  UNL1       -0.2652
     32 C         142.9222  141.2783  165.8720 C.3     1  UNL1        0.0900
     33 C         142.5987  141.9355  164.5630 C.3     1  UNL1        0.0901
     34 C         142.8852  139.1829  167.4074 C.3     1  UNL1        0.1193
     35 C         142.3214  139.7347  168.6832 C.ar    1  UNL1        0.0823
     36 C         140.8687  139.9622  168.9795 C.ar    1  UNL1        0.0530
     37 S         140.7609  140.5240  170.3661 S.2     1  UNL1       -0.0643
     38 C         142.1470  140.6437  170.9269 C.ar    1  UNL1        0.1341
     39 N         143.1114  140.1559  169.8868 N.ar    1  UNL1       -0.2392
@<TRIPOS>BOND
     1    13    14    1
     2    14    12    1
     3    12     8    1
     4     8     9    2
     5     8    10   am
     6    10     2    1
     7     2     3   ar
     8     3     4   ar
     9     4     5   ar
    10     5     6   ar
    11     6     7   ar
    12     7     1    1
    13     1    15    1
    14    15    16   ar
    15    16    17   ar
    16    17    18   ar
    17    18    21    1
    18    21    22    2
    19    21    23   am
    20    23    24    1
    21    24    25    1
    22    23    26    1
    23    26    27    1
    24    18    19   ar
    25    19    20   ar
    26     1    28    1
    27    28    29    1
    28    29    30    1
    29    30    31    1
    30    31    34    1
    31    34    35    1
    32    35    36   ar
    33    36    37   ar
    34    37    38   ar
    35    38    39   ar
    36    31    32    1
    37    32    33    1
    38     7     2   ar
    39    20    15   ar
    40    33    28    1
    41    39    35   ar
    42    10    11    1
@<TRIPOS>MOLECULE
*****
 39 42 0 0 0
SMALL
GASTEIGER

@<TRIPOS>ATOM
      1 C         140.6976  140.5904  158.7542 C.3     1  UNL1        0.1043
      2 C         142.1786  142.6348  158.1399 C.ar    1  UNL1        0.0508
      3 C         143.4864  143.1957  157.6658 C.ar    1  UNL1        0.0145
      4 C         144.6212  142.2733  157.3318 C.ar    1  UNL1        0.0013
      5 C         144.4481  140.7900  157.4720 C.ar    1  UNL1       -0.0002
      6 C         143.1402  140.2290  157.9461 C.ar    1  UNL1       -0.0014
      7 C         142.0055  141.1515  158.2801 C.ar    1  UNL1        0.0100
      8 C         141.1077  144.4090  159.7068 C.2     1  UNL1        0.4054
      9 O         142.3064  144.3385  160.6059 O.2     1  UNL1       -0.2261
     10 N         141.0439  143.5572  158.4738 N.am    1  UNL1       -0.2502
     11 H         140.2572  143.6035  157.8838 H       1  UNL1        0.1582
     12 O         139.9730  145.3314  160.0408 O.3     1  UNL1       -0.4345
     13 C         139.1948  145.2225  162.5172 C.3     1  UNL1        0.0513
     14 C         139.8869  145.9516  161.4039 C.3     1  UNL1        0.2102
     15 C         140.5315  140.1848  160.1887 C.ar    1  UNL1       -0.0036
     16 C         139.7042  138.9830  160.5374 C.ar    1  UNL1       -0.0025
     17 C         139.5381  138.5774  161.9719 C.ar    1  UNL1        0.0042
     18 C         140.1993  139.3734  163.0578 C.ar    1  UNL1        0.0536
     19 C         141.0266  140.5751  162.7092 C.ar    1  UNL1        0.0042
     20 C         141.1927  140.9808  161.2746 C.ar    1  UNL1       -0.0025
     21 C         140.0332  138.9678  164.4923 C.2     1  UNL1        0.2490
     22 O         140.9534  137.9478  165.0946 O.2     1  UNL1       -0.2699
     23 N         138.9469  139.5821  165.3245 N.am    1  UNL1       -0.2761
     24 C         138.7808  139.1765  166.7590 C.3     1  UNL1        0.0938
     25 C         137.5583  138.4206  167.1880 C.3     1  UNL1        0.0233
     26 C         138.0267  140.6021  164.7222 C.3     1  UNL1        0.0938
     27 C         138.3475  142.0628  164.8380 C.3     1  UNL1        0.0233
     28 N         139.5559  140.4351  157.7939 N.3     1  UNL1       -0.2643
     29 C         139.6969  139.5383  156.5998 C.3     1  UNL1        0.0901
     30 C         138.5552  139.3829  155.6394 C.3     1  UNL1        0.0900
     31 N         137.2724  140.1245  155.8731 N.3     1  UNL1       -0.2652
     32 C         137.1313  141.0213  157.0671 C.3     1  UNL1        0.0900
     33 C         138.2731  141.1766  158.0276 C.3     1  UNL1        0.0901
     34 C         136.1307  139.9691  154.9128 C.3     1  UNL1        0.1193
     35 C         134.7174  140.0764  155.4041 C.ar    1  UNL1        0.0823
     36 C         133.7821  141.2223  155.1554 C.ar    1  UNL1        0.0530
     37 S         132.4781  140.9106  155.8280 S.2     1  UNL1       -0.0643
     38 C         132.6075  139.5720  156.4924 C.ar    1  UNL1        0.1341
     39 N         133.9915  139.0564  156.2304 N.ar    1  UNL1       -0.2392
@<TRIPOS>BOND
     1    13    14    1
     2    14    12    1
     3    12     8    1
     4     8     9    2
     5     8    10   am
     6    10     2    1
     7     2     3   ar
     8     3     4   ar
     9     4     5   ar
    10     5     6   ar
    11     6     7   ar
    12     7     1    1
    13     1    15    1
    14    15    16   ar
    15    16    17   ar
    16    17    18   ar
    17    18    21    1
    18    21    22    2
    19    21    23   am
    20    23    24    1
    21    24    25    1
    22    23    26    1
    23    26    27    1
    24    18    19   ar
    25    19    20   ar
    26     1    28    1
    27    28    29    1
    28    29    30    1
    29    30    31    1
    30    31    34    1
    31    34    35    1
    32    35    36   ar
    33    36    37   ar
    34    37    38   ar
    35    38    39   ar
    36    31    32    1
    37    32    33    1
    38     7     2   ar
    39    20    15   ar
    40    33    28    1
    41    39    35   ar
    42    10    11    1
@<TRIPOS>MOLECULE
*****
 39 42 0 0 0
SMALL
GASTEIGER

@<TRIPOS>ATOM
      1 C         141.5575  140.9279  162.4102 C.3     1  UNL1        0.1043
      2 C         138.9596  140.9401  162.3816 C.ar    1  UNL1        0.0508
      3 C         137.6595  140.2243  162.1643 C.ar    1  UNL1        0.0145
      4 C         137.6572  138.7802  161.7584 C.ar    1  UNL1        0.0013
      5 C         138.9549  138.0521  161.5697 C.ar    1  UNL1       -0.0002
      6 C         140.2550  138.7680  161.7870 C.ar    1  UNL1       -0.0014
      7 C         140.2573  140.2120  162.1929 C.ar    1  UNL1        0.0100
      8 C         138.7062  143.4512  161.7648 C.2     1  UNL1        0.4054
      9 O         138.4481  143.0742  160.3360 O.2     1  UNL1       -0.2261
     10 N         138.9619  142.3842  162.7875 N.am    1  UNL1       -0.2502
     11 H         139.1313  142.6316  163.7253 H       1  UNL1        0.1582
     12 O         138.7085  144.8952  162.1707 O.3     1  UNL1       -0.4345
     13 C         141.1389  145.3520  162.9675 C.3     1  UNL1        0.0513
     14 C         139.9743  145.6958  162.0868 C.3     1  UNL1        0.2102
     15 C         142.4199  141.2891  161.2373 C.ar    1  UNL1       -0.0036
     16 C         143.3581  140.2735  160.6553 C.ar    1  UNL1       -0.0025
     17 C         144.2205  140.6347  159.4823 C.ar    1  UNL1        0.0042
     18 C         144.1448  142.0114  158.8914 C.ar    1  UNL1        0.0536
     19 C         143.2066  143.0268  159.4734 C.ar    1  UNL1        0.0042
     20 C         142.3442  142.6656  160.6464 C.ar    1  UNL1       -0.0025
     21 C         145.0072  142.3725  157.7185 C.2     1  UNL1        0.2490
     22 O         146.3989  142.8860  157.9407 O.2     1  UNL1       -0.2699
     23 N         144.4778  142.2202  156.3232 N.am    1  UNL1       -0.2761
     24 C         145.3402  142.5814  155.1503 C.3     1  UNL1        0.0938
     25 C         146.0728  141.5091  154.3996 C.3     1  UNL1        0.0233
     26 C         143.0861  141.7068  156.1010 C.3     1  UNL1        0.0938
     27 C         141.9534  142.6705  155.9056 C.3     1  UNL1        0.0233
     28 N         141.9952  141.2826  163.8004 N.3     1  UNL1       -0.2643
     29 C         143.0468  142.3314  164.0110 C.3     1  UNL1        0.0901
     30 C         143.4845  142.6860  165.4011 C.3     1  UNL1        0.0900
     31 N         142.8706  141.9920  166.5807 N.3     1  UNL1       -0.2652
     32 C         141.8190  140.9433  166.3702 C.3     1  UNL1        0.0900
     33 C         141.3813  140.5886  164.9800 C.3     1  UNL1        0.0901
     34 C         143.3083  142.3467  167.9709 C.3     1  UNL1        0.1193
     35 C         142.4203  142.0356  169.1392 C.ar    1  UNL1        0.0823
     36 C         141.2277  142.8330  169.5771 C.ar    1  UNL1        0.0530
     37 S         140.6394  142.1627  170.7831 S.2     1  UNL1       -0.0643
     38 C         141.4684  140.9509  171.0906 C.ar    1  UNL1        0.1341
     39 N         142.5690  140.8724  170.0745 N.ar    1  UNL1       -0.2392
@<TRIPOS>BOND
     1    13    14    1
     2    14    12    1
     3    12     8    1
     4     8     9    2
     5     8    10   am
     6    10     2    1
     7     2     3   ar
     8     3     4   ar
     9     4     5   ar
    10     5     6   ar
    11     6     7   ar
    12     7     1    1
    13     1    15    1
    14    15    16   ar
    15    16    17   ar
    16    17    18   ar
    17    18    21    1
    18    21    22    2
    19    21    23   am
    20    23    24    1
    21    24    25    1
    22    23    26    1
    23    26    27    1
    24    18    19   ar
    25    19    20   ar
    26     1    28    1
    27    28    29    1
    28    29    30    1
    29    30    31    1
    30    31    34    1
    31    34    35    1
    32    35    36   ar
    33    36    37   ar
    34    37    38   ar
    35    38    39   ar
    36    31    32    1
    37    32    33    1
    38     7     2   ar
    39    20    15   ar
    40    33    28    1
    41    39    35   ar
    42    10    11    1
@<TRIPOS>MOLECULE
*****
 39 42 0 0 0
SMALL
GASTEIGER

@<TRIPOS>ATOM
      1 C         142.0167  138.7187  156.8919 C.3     1  UNL1        0.1043
      2 C         143.9807  140.3290  157.4392 C.ar    1  UNL1        0.0508
      3 C         144.9052  141.4366  157.0289 C.ar    1  UNL1        0.0145
      4 C         144.7902  142.0417  155.6612 C.ar    1  UNL1        0.0013
      5 C         143.7507  141.5392  154.7038 C.ar    1  UNL1       -0.0002
      6 C         142.8262  140.4315  155.1140 C.ar    1  UNL1       -0.0014
      7 C         142.9412  139.8264  156.4817 C.ar    1  UNL1        0.0100
      8 C         143.6383  140.4953  160.0092 C.2     1  UNL1        0.4054
      9 O         143.0658  141.8719  159.8438 O.2     1  UNL1       -0.2261
     10 N         144.0958  139.7238  158.8069 N.am    1  UNL1       -0.2502
     11 H         144.4715  138.8203  158.9154 H       1  UNL1        0.1582
     12 O         143.7533  139.8901  161.3769 O.3     1  UNL1       -0.4345
     13 C         144.8722  139.9072  163.7217 C.3     1  UNL1        0.0513
     14 C         144.4832  140.6239  162.4627 C.3     1  UNL1        0.2102
     15 C         142.2013  137.3406  156.3291 C.ar    1  UNL1       -0.0036
     16 C         141.0050  136.4883  156.0245 C.ar    1  UNL1       -0.0025
     17 C         141.1897  135.1102  155.4617 C.ar    1  UNL1        0.0042
     18 C         142.5706  134.5844  155.2035 C.ar    1  UNL1        0.0536
     19 C         143.7668  135.4366  155.5081 C.ar    1  UNL1        0.0042
     20 C         143.5821  136.8147  156.0709 C.ar    1  UNL1       -0.0025
     21 C         142.7552  133.2063  154.6407 C.2     1  UNL1        0.2490
     22 O         142.6003  132.9708  153.1674 O.2     1  UNL1       -0.2699
     23 N         143.0948  132.0636  155.5512 N.am    1  UNL1       -0.2761
     24 C         143.2795  130.6855  154.9884 C.3     1  UNL1        0.0938
     25 C         144.6553  130.1893  154.6557 C.3     1  UNL1        0.0233
     26 C         143.2497  132.2990  157.0245 C.3     1  UNL1        0.0938
     27 C         144.6171  132.4701  157.6169 C.3     1  UNL1        0.0233
     28 N         140.9076  138.9891  157.8648 N.3     1  UNL1       -0.2643
     29 C         140.9026  138.3124  159.2036 C.3     1  UNL1        0.0901
     30 C         139.7935  138.5828  160.1765 C.3     1  UNL1        0.0900
     31 N         138.6893  139.5298  159.8108 N.3     1  UNL1       -0.2652
     32 C         138.6941  140.2065  158.4721 C.3     1  UNL1        0.0900
     33 C         139.8033  139.9361  157.4991 C.3     1  UNL1        0.0901
     34 C         137.5801  139.8002  160.7837 C.3     1  UNL1        0.1193
     35 C         137.6785  140.9602  161.7298 C.ar    1  UNL1        0.0823
     36 C         137.6133  140.8852  163.2265 C.ar    1  UNL1        0.0530
     37 S         137.7538  142.2774  163.7669 S.2     1  UNL1       -0.0643
     38 C         137.9058  143.2128  162.6042 C.ar    1  UNL1        0.1341
     39 N         137.8593  142.3987  161.3452 N.ar    1  UNL1       -0.2392
@<TRIPOS>BOND
     1    13    14    1
     2    14    12    1
     3    12     8    1
     4     8     9    2
     5     8    10   am
     6    10     2    1
     7     2     3   ar
     8     3     4   ar
     9     4     5   ar
    10     5     6   ar
    11     6     7   ar
    12     7     1    1
    13     1    15    1
    14    15    16   ar
    15    16    17   ar
    16    17    18   ar
    17    18    21    1
    18    21    22    2
    19    21    23   am
    20    23    24    1
    21    24    25    1
    22    23    26    1
    23    26    27    1
    24    18    19   ar
    25    19    20   ar
    26     1    28    1
    27    28    29    1
    28    29    30    1
    29    30    31    1
    30    31    34    1
    31    34    35    1
    32    35    36   ar
    33    36    37   ar
    34    37    38   ar
    35    38    39   ar
    36    31    32    1
    37    32    33    1
    38     7     2   ar
    39    20    15   ar
    40    33    28    1
    41    39    35   ar
    42    10    11    1
@<TRIPOS>MOLECULE
*****
 39 42 0 0 0
SMALL
GASTEIGER

@<TRIPOS>ATOM
      1 C         139.8420  140.4723  158.4723 C.3     1  UNL1        0.1043
      2 C         139.7887  142.8844  157.5084 C.ar    1  UNL1        0.0508
      3 C         139.1366  143.9250  156.6471 C.ar    1  UNL1        0.0145
      4 C         137.8857  143.5942  155.8883 C.ar    1  UNL1        0.0013
      5 C         137.2869  142.2228  155.9908 C.ar    1  UNL1       -0.0002
      6 C         137.9390  141.1822  156.8521 C.ar    1  UNL1       -0.0014
      7 C         139.1899  141.5130  157.6109 C.ar    1  UNL1        0.0100
      8 C         140.9704  144.0949  159.4803 C.2     1  UNL1        0.4054
      9 O         139.6504  144.6437  159.9345 O.2     1  UNL1       -0.2261
     10 N         141.0396  143.2153  158.2673 N.am    1  UNL1       -0.2502
     11 H         141.9060  142.8551  157.9691 H       1  UNL1        0.1582
     12 O         142.2213  144.4257  160.2391 O.3     1  UNL1       -0.4345
     13 C         143.6798  144.0135  162.3493 C.3     1  UNL1        0.0513
     14 C         142.3325  144.0720  161.6926 C.3     1  UNL1        0.2102
     15 C         139.5504  140.4259  159.9429 C.ar    1  UNL1       -0.0036
     16 C         140.6405  140.7113  160.9331 C.ar    1  UNL1       -0.0025
     17 C         140.3489  140.6648  162.4037 C.ar    1  UNL1        0.0042
     18 C         138.9672  140.3329  162.8842 C.ar    1  UNL1        0.0536
     19 C         137.8771  140.0475  161.8941 C.ar    1  UNL1        0.0042
     20 C         138.1687  140.0940  160.4235 C.ar    1  UNL1       -0.0025
     21 C         138.6756  140.2864  164.3549 C.2     1  UNL1        0.2490
     22 O         138.1936  141.5176  165.0632 O.2     1  UNL1       -0.2699
     23 N         138.8659  139.0086  165.1172 N.am    1  UNL1       -0.2761
     24 C         138.5743  138.9621  166.5879 C.3     1  UNL1        0.0938
     25 C         137.4170  138.1556  167.0979 C.3     1  UNL1        0.0233
     26 C         139.3479  137.7774  164.4089 C.3     1  UNL1        0.0938
     27 C         140.7949  137.3889  164.4805 C.3     1  UNL1        0.0233
     28 N         140.7856  139.4782  157.8630 N.3     1  UNL1       -0.2643
     29 C         142.2172  139.8544  157.6200 C.3     1  UNL1        0.0901
     30 C         143.1608  138.8603  157.0107 C.3     1  UNL1        0.0900
     31 N         142.6729  137.4900  156.6444 N.3     1  UNL1       -0.2652
     32 C         141.2413  137.1138  156.8873 C.3     1  UNL1        0.0900
     33 C         140.2976  138.1079  157.4966 C.3     1  UNL1        0.0901
     34 C         143.6165  136.4959  156.0351 C.3     1  UNL1        0.1193
     35 C         143.3319  135.0271  156.1443 C.ar    1  UNL1        0.0823
     36 C         142.7914  134.1503  155.0539 C.ar    1  UNL1        0.0530
     37 S         142.6633  132.7586  155.5988 S.2     1  UNL1       -0.0643
     38 C         143.1248  132.7754  157.0261 C.ar    1  UNL1        0.1341
     39 N         143.5380  134.1774  157.3631 N.ar    1  UNL1       -0.2392
@<TRIPOS>BOND
     1    13    14    1
     2    14    12    1
     3    12     8    1
     4     8     9    2
     5     8    10   am
     6    10     2    1
     7     2     3   ar
     8     3     4   ar
     9     4     5   ar
    10     5     6   ar
    11     6     7   ar
    12     7     1    1
    13     1    15    1
    14    15    16   ar
    15    16    17   ar
    16    17    18   ar
    17    18    21    1
    18    21    22    2
    19    21    23   am
    20    23    24    1
    21    24    25    1
    22    23    26    1
    23    26    27    1
    24    18    19   ar
    25    19    20   ar
    26     1    28    1
    27    28    29    1
    28    29    30    1
    29    30    31    1
    30    31    34    1
    31    34    35    1
    32    35    36   ar
    33    36    37   ar
    34    37    38   ar
    35    38    39   ar
    36    31    32    1
    37    32    33    1
    38     7     2   ar
    39    20    15   ar
    40    33    28    1
    41    39    35   ar
    42    10    11    1
@<TRIPOS>MOLECULE
*****
 39 42 0 0 0
SMALL
GASTEIGER

@<TRIPOS>ATOM
      1 C         141.5701  141.7135  162.1346 C.3     1  UNL1        0.1043
      2 C         141.4480  139.1233  161.9743 C.ar    1  UNL1        0.0508
      3 C         142.0714  137.8149  161.5879 C.ar    1  UNL1        0.0145
      4 C         143.4404  137.7882  160.9754 C.ar    1  UNL1        0.0013
      5 C         144.1860  139.0700  160.7494 C.ar    1  UNL1       -0.0002
      6 C         143.5626  140.3784  161.1358 C.ar    1  UNL1       -0.0014
      7 C         142.1936  140.4050  161.7482 C.ar    1  UNL1        0.0100
      8 C         139.8625  138.5964  163.9639 C.2     1  UNL1        0.4054
      9 O         141.0152  138.0161  164.7287 O.2     1  UNL1       -0.2261
     10 N         140.0790  139.1499  162.5867 N.am    1  UNL1       -0.2502
     11 H         139.3225  139.5307  162.0847 H       1  UNL1        0.1582
     12 O         138.4935  138.6230  164.5763 O.3     1  UNL1       -0.4345
     13 C         137.6900  138.6019  167.0470 C.3     1  UNL1        0.0513
     14 C         138.2665  139.3391  165.8747 C.3     1  UNL1        0.2102
     15 C         141.2221  142.7195  161.0779 C.ar    1  UNL1       -0.0036
     16 C         142.0582  143.9540  160.9130 C.ar    1  UNL1       -0.0025
     17 C         141.7102  144.9600  159.8563 C.ar    1  UNL1        0.0042
     18 C         140.5259  144.7316  158.9643 C.ar    1  UNL1        0.0536
     19 C         139.6899  143.4972  159.1291 C.ar    1  UNL1        0.0042
     20 C         140.0379  142.4912  160.1859 C.ar    1  UNL1       -0.0025
     21 C         140.1779  145.7376  157.9075 C.2     1  UNL1        0.2490
     22 O         139.2220  146.8511  158.2178 O.2     1  UNL1       -0.2699
     23 N         140.7858  145.6300  156.5404 N.am    1  UNL1       -0.2761
     24 C         140.4377  146.6361  155.4836 C.3     1  UNL1        0.0938
     25 C         139.0696  146.6350  154.8686 C.3     1  UNL1        0.0233
     26 C         141.7417  144.5165  156.2301 C.3     1  UNL1        0.0938
     27 C         141.2390  143.2487  155.6057 C.3     1  UNL1        0.0233
     28 N         141.2948  142.0160  163.5778 N.3     1  UNL1       -0.2643
     29 C         140.1085  142.8527  163.9557 C.3     1  UNL1        0.0901
     30 C         139.8331  143.1551  165.3988 C.3     1  UNL1        0.0900
     31 N         140.7440  142.6209  166.4641 N.3     1  UNL1       -0.2652
     32 C         141.9302  141.7842  166.0863 C.3     1  UNL1        0.0900
     33 C         142.2057  141.4817  164.6431 C.3     1  UNL1        0.0901
     34 C         140.4687  142.9233  167.9072 C.3     1  UNL1        0.1193
     35 C         140.7065  141.8736  168.9521 C.ar    1  UNL1        0.0823
     36 C         139.7577  140.7751  169.3303 C.ar    1  UNL1        0.0530
     37 S         140.3996  139.9608  170.4142 S.2     1  UNL1       -0.0643
     38 C         141.7452  140.5561  170.7059 C.ar    1  UNL1        0.1341
     39 N         141.9348  141.7383  169.8023 N.ar    1  UNL1       -0.2392
@<TRIPOS>BOND
     1    13    14    1
     2    14    12    1
     3    12     8    1
     4     8     9    2
     5     8    10   am
     6    10     2    1
     7     2     3   ar
     8     3     4   ar
     9     4     5   ar
    10     5     6   ar
    11     6     7   ar
    12     7     1    1
    13     1    15    1
    14    15    16   ar
    15    16    17   ar
    16    17    18   ar
    17    18    21    1
    18    21    22    2
    19    21    23   am
    20    23    24    1
    21    24    25    1
    22    23    26    1
    23    26    27    1
    24    18    19   ar
    25    19    20   ar
    26     1    28    1
    27    28    29    1
    28    29    30    1
    29    30    31    1
    30    31    34    1
    31    34    35    1
    32    35    36   ar
    33    36    37   ar
    34    37    38   ar
    35    38    39   ar
    36    31    32    1
    37    32    33    1
    38     7     2   ar
    39    20    15   ar
    40    33    28    1
    41    39    35   ar
    42    10    11    1
