@<TRIPOS>MOLECULE
*****
 41 43 0 0 0
SMALL
GASTEIGER

@<TRIPOS>ATOM
      1 CA        138.0660  141.2805  157.3022 C.3     1  ILE1        0.1487
      2 N         137.7699  140.5642  158.5865 N.am    1  ILE1       -0.2970
      3 C         137.9861  140.3992  160.0615 C.2     4  PHE4        0.2412
      4 O         137.1081  139.2488  160.4563 O.2     4  PHE4       -0.2733
      5 CA        138.6568  140.8296  161.3323 C.3     4  PHE4        0.1562
      6 N         139.6023  141.7402  162.0582 N.am    4  PHE4       -0.2696
      7 C         139.5609  141.2840  163.4866 C.3     0  ACE0        0.1153
      8 C         140.5692  142.8868  162.0448 C.2     3  VAL3        0.2439
      9 O         141.0284  143.0242  163.4662 O.2     3  VAL3       -0.2731
     10 CA        141.2985  143.9625  161.2956 C.3     3  VAL3        0.1487
     11 N         141.5946  144.6787  160.0113 N.am    3  VAL3       -0.2970
     12 C         141.3784  144.8437  158.5363 C.2     2  PHE2        0.2412
     13 O         142.2564  145.9941  158.1414 O.2     2  PHE2       -0.2733
     14 CA        140.7077  144.4134  157.2654 C.3     2  PHE2        0.1562
     15 N         139.7622  143.5028  156.5396 N.am    2  PHE2       -0.2696
     16 C         139.8036  143.9590  155.1112 C.3     0  ACE0        0.1153
     17 C         138.7953  142.3561  156.5530 C.2     1  ILE1        0.2439
     18 O         138.3362  142.2187  155.1316 O.2     1  ILE1       -0.2731
     19 H         137.1202  139.8653  158.3444 H       1  ILE1        0.1499
     20 H         142.2443  145.3777  160.2533 H       3  VAL3        0.1499
     21 CB        142.1351  144.6566  162.3292 C.3     3  VAL3        0.0269
     22 CG1       141.5127  145.6756  163.2371 C.3     3  VAL3        0.0022
     23 CG2       143.5941  144.3318  162.4548 C.3     3  VAL3        0.0022
     24 CB        137.2294  140.5863  156.2686 C.3     1  ILE1        0.0269
     25 CG2       137.8393  139.5294  155.3963 C.3     1  ILE1        0.0022
     26 CD1       134.9508  140.2674  155.0620 C.3     1  ILE1        0.0001
     27 CG1       135.7830  140.9491  156.1073 C.3     1  ILE1        0.0021
     28 CB        138.1260  139.9021  162.3849 C.3     4  PHE4        0.0555
     29 CG        139.0267  138.8729  163.0010 C.ar    4  PHE4       -0.0200
     30 CD1       140.1373  138.2685  162.1939 C.ar    4  PHE4       -0.0042
     31 CE1       141.0380  137.2394  162.8100 C.ar    4  PHE4       -0.0003
     32 CZ        140.8281  136.8145  164.2332 C.ar    4  PHE4       -0.0000
     33 CE2       139.7175  137.4188  165.0402 C.ar    4  PHE4       -0.0003
     34 CD2       138.8168  138.4480  164.4242 C.ar    4  PHE4       -0.0042
     35 CB        141.2385  145.3409  156.2129 C.3     2  PHE2        0.0555
     36 CG        140.4687  146.5737  155.8422 C.ar    2  PHE2       -0.0200
     37 CD1       140.7295  147.2552  154.5316 C.ar    2  PHE2       -0.0042
     38 CE1       139.9597  148.4881  154.1610 C.ar    2  PHE2       -0.0003
     39 CZ        138.9290  149.0395  155.1010 C.ar    2  PHE2       -0.0000
     40 CE2       138.6681  148.3582  156.4115 C.ar    2  PHE2       -0.0003
     41 CD2       139.4379  147.1252  156.7822 C.ar    2  PHE2       -0.0042
@<TRIPOS>BOND
     1    26    27    1
     2    27    24    1
     3    24    25    1
     4    24     1    1
     5     1     2    1
     6     2     3   am
     7     3     4    2
     8     3     5    1
     9     5    28    1
    10    28    29    1
    11    29    30   ar
    12    30    31   ar
    13    31    32   ar
    14    32    33   ar
    15    33    34   ar
    16     5     6    1
    17     6     7    1
    18     6     8   am
    19     8     9    2
    20     8    10    1
    21    10    21    1
    22    21    22    1
    23    21    23    1
    24    10    11    1
    25    11    12   am
    26    12    13    2
    27    12    14    1
    28    14    35    1
    29    35    36    1
    30    36    37   ar
    31    37    38   ar
    32    38    39   ar
    33    39    40   ar
    34    40    41   ar
    35    14    15    1
    36    15    16    1
    37    15    17   am
    38    17    18    2
    39    17     1    1
    40    34    29   ar
    41    41    36   ar
    42     2    19    1
    43    11    20    1
@<TRIPOS>MOLECULE
*****
 41 43 0 0 0
SMALL
GASTEIGER

@<TRIPOS>ATOM
      1 CA        141.1354  144.0608  161.2563 C.3     1  ILE1        0.1487
      2 N         141.5194  144.7213  159.9655 N.am    1  ILE1       -0.2970
      3 C         141.4428  144.7916  158.4691 C.2     4  PHE4        0.2412
      4 O         142.2929  145.9684  158.0917 O.2     4  PHE4       -0.2733
      5 CA        140.9263  144.2526  157.1681 C.3     4  PHE4        0.1562
      6 N         140.1080  143.2489  156.4111 N.am    4  PHE4       -0.2696
      7 C         140.2672  143.6272  154.9683 C.3     0  ACE0        0.1153
      8 C         139.2075  142.0494  156.4009 C.2     3  VAL3        0.2439
      9 O         138.9005  141.8067  154.9528 O.2     3  VAL3       -0.2731
     10 CA        138.4659  140.9754  157.1402 C.3     3  VAL3        0.1487
     11 N         138.0819  140.3149  158.4311 N.am    3  VAL3       -0.2970
     12 C         138.1585  140.2447  159.9274 C.2     2  PHE2        0.2412
     13 O         137.3084  139.0678  160.3049 O.2     2  PHE2       -0.2733
     14 CA        138.6750  140.7836  161.2285 C.3     2  PHE2        0.1562
     15 N         139.4933  141.7874  161.9854 N.am    2  PHE2       -0.2696
     16 C         139.3341  141.4090  163.4283 C.3     0  ACE0        0.1153
     17 C         140.3938  142.9868  161.9957 C.2     1  ILE1        0.2439
     18 O         140.7008  143.2295  163.4437 O.2     1  ILE1       -0.2731
     19 H         142.1033  145.4699  160.2261 H       1  ILE1        0.1499
     20 H         137.4980  139.5663  158.1704 H       3  VAL3        0.1499
     21 CB        137.7749  140.1769  156.0749 C.3     3  VAL3        0.0269
     22 CG1       136.3596  140.4981  155.6959 C.3     3  VAL3        0.0022
     23 CG2       138.4993  139.0570  155.3884 C.3     3  VAL3        0.0022
     24 CB        141.8264  144.8594  162.3217 C.3     1  ILE1        0.0269
     25 CG2       141.0755  145.9216  163.0684 C.3     1  ILE1        0.0022
     26 CD1       143.8083  144.9253  164.0002 C.3     1  ILE1        0.0001
     27 CG1       143.2682  144.5957  162.6402 C.3     1  ILE1        0.0021
     28 CB        141.5089  145.1505  156.1172 C.3     4  PHE4        0.0555
     29 CG        140.7335  146.3395  155.6326 C.ar    4  PHE4       -0.0200
     30 CD1       139.6182  146.8980  156.4660 C.ar    4  PHE4       -0.0042
     31 CE1       138.8428  148.0870  155.9814 C.ar    4  PHE4       -0.0003
     32 CZ        139.1826  148.7177  154.6636 C.ar    4  PHE4       -0.0000
     33 CE2       140.2979  148.1594  153.8303 C.ar    4  PHE4       -0.0003
     34 CD2       141.0733  146.9703  154.3148 C.ar    4  PHE4       -0.0042
     35 CB        138.0924  139.8857  162.2794 C.3     2  PHE2        0.0555
     36 CG        138.9652  138.8882  162.9816 C.ar    2  PHE2       -0.0200
     37 CD1       138.6794  138.5127  164.4055 C.ar    2  PHE2       -0.0042
     38 CE1       139.5523  137.5152  165.1077 C.ar    2  PHE2       -0.0003
     39 CZ        140.7109  136.8932  164.3861 C.ar    2  PHE2       -0.0000
     40 CE2       140.9967  137.2687  162.9622 C.ar    2  PHE2       -0.0003
     41 CD2       140.1238  138.2662  162.2600 C.ar    2  PHE2       -0.0042
@<TRIPOS>BOND
     1    26    27    1
     2    27    24    1
     3    24    25    1
     4    24     1    1
     5     1     2    1
     6     2     3   am
     7     3     4    2
     8     3     5    1
     9     5    28    1
    10    28    29    1
    11    29    30   ar
    12    30    31   ar
    13    31    32   ar
    14    32    33   ar
    15    33    34   ar
    16     5     6    1
    17     6     7    1
    18     6     8   am
    19     8     9    2
    20     8    10    1
    21    10    21    1
    22    21    22    1
    23    21    23    1
    24    10    11    1
    25    11    12   am
    26    12    13    2
    27    12    14    1
    28    14    35    1
    29    35    36    1
    30    36    37   ar
    31    37    38   ar
    32    38    39   ar
    33    39    40   ar
    34    40    41   ar
    35    14    15    1
    36    15    16    1
    37    15    17   am
    38    17    18    2
    39    17     1    1
    40    34    29   ar
    41    41    36   ar
    42     2    19    1
    43    11    20    1
@<TRIPOS>MOLECULE
*****
 41 43 0 0 0
SMALL
GASTEIGER

@<TRIPOS>ATOM
      1 CA        142.6077  139.5679  157.0588 C.3     1  ILE1        0.1487
      2 N         142.6520  138.7905  158.3409 N.am    1  ILE1       -0.2970
      3 C         142.6668  138.7579  159.8404 C.2     4  PHE4        0.2412
      4 O         142.7314  137.3022  160.1965 O.2     4  PHE4       -0.2733
      5 CA        142.6482  139.4788  161.1557 C.3     4  PHE4        0.1562
      6 N         142.6012  140.7601  161.9342 N.am    4  PHE4       -0.2696
      7 C         142.6318  140.3408  163.3741 C.3     0  ACE0        0.1153
      8 C         142.5384  142.2584  161.9674 C.2     3  VAL3        0.2439
      9 O         142.5364  142.6147  163.4245 O.2     3  VAL3       -0.2731
     10 CA        142.4765  143.5723  161.2464 C.3     3  VAL3        0.1487
     11 N         142.4322  144.3496  159.9643 N.am    3  VAL3       -0.2970
     12 C         142.4174  144.3822  158.4648 C.2     2  PHE2        0.2412
     13 O         142.3528  145.8380  158.1087 O.2     2  PHE2       -0.2733
     14 CA        142.4359  143.6614  157.1495 C.3     2  PHE2        0.1562
     15 N         142.4830  142.3800  156.3710 N.am    2  PHE2       -0.2696
     16 C         142.4524  142.7993  154.9311 C.3     0  ACE0        0.1153
     17 C         142.5458  140.8818  156.3378 C.2     1  ILE1        0.2439
     18 O         142.5477  140.5254  154.8807 O.2     1  ILE1       -0.2731
     19 H         142.6893  137.8461  158.0652 H       1  ILE1        0.1499
     20 H         142.3949  145.2940  160.2400 H       3  VAL3        0.1499
     21 CB        142.4426  144.6087  162.3302 C.3     3  VAL3        0.0269
     22 CG1       141.1413  145.2462  162.7178 C.3     3  VAL3        0.0022
     23 CG2       143.7098  145.0076  163.0265 C.3     3  VAL3        0.0022
     24 CB        142.6416  138.5314  155.9750 C.3     1  ILE1        0.0269
     25 CG2       141.3617  138.0424  155.3646 C.3     1  ILE1        0.0022
     26 CD1       144.1877  136.5023  155.4828 C.3     1  ILE1        0.0001
     27 CG1       143.9555  137.9841  155.5015 C.3     1  ILE1        0.0021
     28 CB        142.7032  138.3963  162.1926 C.3     4  PHE4        0.0555
     29 CG        141.4561  137.9919  162.9215 C.ar    4  PHE4       -0.0200
     30 CD1       141.5418  137.4870  164.3314 C.ar    4  PHE4       -0.0042
     31 CE1       140.2948  137.0826  165.0604 C.ar    4  PHE4       -0.0003
     32 CZ        138.9620  137.1832  164.3794 C.ar    4  PHE4       -0.0000
     33 CE2       138.8763  137.6881  162.9696 C.ar    4  PHE4       -0.0003
     34 CD2       140.1234  138.0925  162.2406 C.ar    4  PHE4       -0.0042
     35 CB        142.3810  144.7439  156.1126 C.3     2  PHE2        0.0555
     36 CG        141.0620  145.3415  155.7214 C.ar    2  PHE2       -0.0200
     37 CD1       139.7867  144.6205  156.0439 C.ar    2  PHE2       -0.0042
     38 CE1       138.4678  145.2182  155.6528 C.ar    2  PHE2       -0.0003
     39 CZ        138.4239  146.5368  154.9391 C.ar    2  PHE2       -0.0000
     40 CE2       139.6991  147.2578  154.6166 C.ar    2  PHE2       -0.0003
     41 CD2       141.0182  146.6601  155.0078 C.ar    2  PHE2       -0.0042
@<TRIPOS>BOND
     1    26    27    1
     2    27    24    1
     3    24    25    1
     4    24     1    1
     5     1     2    1
     6     2     3   am
     7     3     4    2
     8     3     5    1
     9     5    28    1
    10    28    29    1
    11    29    30   ar
    12    30    31   ar
    13    31    32   ar
    14    32    33   ar
    15    33    34   ar
    16     5     6    1
    17     6     7    1
    18     6     8   am
    19     8     9    2
    20     8    10    1
    21    10    21    1
    22    21    22    1
    23    21    23    1
    24    10    11    1
    25    11    12   am
    26    12    13    2
    27    12    14    1
    28    14    35    1
    29    35    36    1
    30    36    37   ar
    31    37    38   ar
    32    38    39   ar
    33    39    40   ar
    34    40    41   ar
    35    14    15    1
    36    15    16    1
    37    15    17   am
    38    17    18    2
    39    17     1    1
    40    34    29   ar
    41    41    36   ar
    42     2    19    1
    43    11    20    1
@<TRIPOS>MOLECULE
*****
 41 43 0 0 0
SMALL
GASTEIGER

@<TRIPOS>ATOM
      1 CA        142.3511  143.6410  161.3018 C.3     1  ILE1        0.1487
      2 N         142.3133  144.4345  160.0294 N.am    1  ILE1       -0.2970
      3 C         142.3304  144.4874  158.5305 C.2     4  PHE4        0.2412
      4 O         142.2331  145.9456  158.1923 O.2     4  PHE4       -0.2733
      5 CA        142.3979  143.7856  157.2065 C.3     4  PHE4        0.1562
      6 N         142.4977  142.5169  156.4124 N.am    4  PHE4       -0.2696
      7 C         142.4870  142.9551  154.9778 C.3     0  ACE0        0.1153
      8 C         142.6030  141.0216  156.3608 C.2     3  VAL3        0.2439
      9 O         142.6468  140.6856  154.8995 O.2     3  VAL3       -0.2731
     10 CA        142.6856  139.7000  157.0655 C.3     3  VAL3        0.1487
     11 N         142.7234  138.9065  158.3379 N.am    3  VAL3       -0.2970
     12 C         142.7062  138.8536  159.8368 C.2     2  PHE2        0.2412
     13 O         142.8035  137.3954  160.1750 O.2     2  PHE2       -0.2733
     14 CA        142.6387  139.5554  161.1608 C.3     2  PHE2        0.1562
     15 N         142.5390  140.8241  161.9549 N.am    2  PHE2       -0.2696
     16 C         142.5497  140.3859  163.3895 C.3     0  ACE0        0.1153
     17 C         142.4337  142.3194  162.0065 C.2     1  ILE1        0.2439
     18 O         142.3899  142.6554  163.4678 O.2     1  ILE1       -0.2731
     19 H         142.2436  145.3736  160.3167 H       1  ILE1        0.1499
     20 H         142.7930  137.9675  158.0506 H       3  VAL3        0.1499
     21 CB        142.7721  138.6800  155.9691 C.3     3  VAL3        0.0269
     22 CG1       141.5221  138.0490  155.4314 C.3     3  VAL3        0.0022
     23 CG2       144.1087  138.2911  155.4104 C.3     3  VAL3        0.0022
     24 CB        142.2645  144.6610  162.3982 C.3     1  ILE1        0.0269
     25 CG2       143.5162  145.1716  163.0481 C.3     1  ILE1        0.0022
     26 CD1       140.1102  146.0360  161.9310 C.3     1  ILE1        0.0001
     27 CG1       140.9262  145.1704  162.8447 C.3     1  ILE1        0.0021
     28 CB        142.3356  144.8804  156.1830 C.3     4  PHE4        0.0555
     29 CG        141.0098  145.4518  155.7758 C.ar    4  PHE4       -0.0200
     30 CD1       140.9470  146.7796  155.0806 C.ar    4  PHE4       -0.0042
     31 CE1       139.6213  147.3509  154.6733 C.ar    4  PHE4       -0.0003
     32 CZ        138.3583  146.5946  154.9611 C.ar    4  PHE4       -0.0000
     33 CE2       138.4211  145.2668  155.6562 C.ar    4  PHE4       -0.0003
     34 CD2       139.7469  144.6954  156.0636 C.ar    4  PHE4       -0.0042
     35 CB        142.7011  138.4606  162.1843 C.3     2  PHE2        0.0555
     36 CG        141.4564  138.0371  162.9063 C.ar    2  PHE2       -0.0200
     37 CD1       140.1283  138.0996  162.2116 C.ar    2  PHE2       -0.0042
     38 CE1       138.8836  137.6761  162.9337 C.ar    2  PHE2       -0.0003
     39 CZ        138.9669  137.1902  164.3503 C.ar    2  PHE2       -0.0000
     40 CE2       140.2948  137.1278  165.0450 C.ar    2  PHE2       -0.0003
     41 CD2       141.5396  137.5512  164.3230 C.ar    2  PHE2       -0.0042
@<TRIPOS>BOND
     1    26    27    1
     2    27    24    1
     3    24    25    1
     4    24     1    1
     5     1     2    1
     6     2     3   am
     7     3     4    2
     8     3     5    1
     9     5    28    1
    10    28    29    1
    11    29    30   ar
    12    30    31   ar
    13    31    32   ar
    14    32    33   ar
    15    33    34   ar
    16     5     6    1
    17     6     7    1
    18     6     8   am
    19     8     9    2
    20     8    10    1
    21    10    21    1
    22    21    22    1
    23    21    23    1
    24    10    11    1
    25    11    12   am
    26    12    13    2
    27    12    14    1
    28    14    35    1
    29    35    36    1
    30    36    37   ar
    31    37    38   ar
    32    38    39   ar
    33    39    40   ar
    34    40    41   ar
    35    14    15    1
    36    15    16    1
    37    15    17   am
    38    17    18    2
    39    17     1    1
    40    34    29   ar
    41    41    36   ar
    42     2    19    1
    43    11    20    1
@<TRIPOS>MOLECULE
*****
 41 43 0 0 0
SMALL
GASTEIGER

@<TRIPOS>ATOM
      1 CA        142.2766  139.4575  160.2830 C.3     1  ILE1        0.1487
      2 N         142.0817  140.6408  161.1840 N.am    1  ILE1       -0.2970
      3 C         141.7251  142.0855  161.3721 C.2     4  PHE4        0.2412
      4 O         141.8529  142.3282  162.8468 O.2     4  PHE4       -0.2733
      5 CA        141.3024  143.4048  160.7968 C.3     4  PHE4        0.1562
      6 N         140.9268  144.2449  159.6122 N.am    4  PHE4       -0.2696
      7 C         140.6414  145.6054  160.1760 C.3     0  ACE0        0.1153
      8 C         140.6990  144.3808  158.1359 C.2     3  VAL3        0.2439
      9 O         140.2957  145.8117  157.9354 O.2     3  VAL3       -0.2731
     10 CA        140.6800  143.7762  156.7633 C.3     3  VAL3        0.1487
     11 N         140.8749  142.5929  155.8623 N.am    3  VAL3       -0.2970
     12 C         141.2315  141.1481  155.6742 C.2     2  PHE2        0.2412
     13 O         141.1037  140.9055  154.1995 O.2     2  PHE2       -0.2733
     14 CA        141.6542  139.8289  156.2495 C.3     2  PHE2        0.1562
     15 N         142.0298  138.9888  157.4341 N.am    2  PHE2       -0.2696
     16 C         142.3152  137.6283  156.8703 C.3     0  ACE0        0.1153
     17 C         142.2575  138.8528  158.9104 C.2     1  ILE1        0.2439
     18 O         142.6609  137.4220  159.1109 O.2     1  ILE1       -0.2731
     19 H         142.2867  140.3092  162.0880 H       1  ILE1        0.1499
     20 H         140.6699  142.9245  154.9582 H       3  VAL3        0.1499
     21 CB        140.2668  144.8940  155.8523 C.3     3  VAL3        0.0269
     22 CG1       138.8128  145.1372  155.5753 C.3     3  VAL3        0.0022
     23 CG2       141.3076  145.7685  155.2183 C.3     3  VAL3        0.0022
     24 CB        142.6898  138.3397  161.1940 C.3     1  ILE1        0.0269
     25 CG2       144.1405  137.9865  161.3375 C.3     1  ILE1        0.0022
     26 CD1       141.6142  137.6584  163.4586 C.3     1  ILE1        0.0001
     27 CG1       141.6523  137.5752  161.9614 C.3     1  ILE1        0.0021
     28 CB        141.2114  144.3303  161.9737 C.3     4  PHE4        0.0555
     29 CG        140.0204  144.2716  162.8836 C.ar    4  PHE4       -0.0200
     30 CD1       138.7496  143.6269  162.4151 C.ar    4  PHE4       -0.0042
     31 CE1       137.5586  143.5682  163.3250 C.ar    4  PHE4       -0.0003
     32 CZ        137.6383  144.1542  164.7035 C.ar    4  PHE4       -0.0000
     33 CE2       138.9090  144.7989  165.1721 C.ar    4  PHE4       -0.0003
     34 CD2       140.1001  144.8576  164.2621 C.ar    4  PHE4       -0.0042
     35 CB        141.7452  138.9034  155.0726 C.3     2  PHE2        0.0555
     36 CG        140.4982  138.3114  154.4857 C.ar    2  PHE2       -0.0200
     37 CD1       140.5279  137.7107  153.1115 C.ar    2  PHE2       -0.0042
     38 CE1       139.2808  137.1188  152.5246 C.ar    2  PHE2       -0.0003
     39 CZ        138.0041  137.1276  153.3119 C.ar    2  PHE2       -0.0000
     40 CE2       137.9743  137.7283  154.6860 C.ar    2  PHE2       -0.0003
     41 CD2       139.2214  138.3202  155.2729 C.ar    2  PHE2       -0.0042
@<TRIPOS>BOND
     1    26    27    1
     2    27    24    1
     3    24    25    1
     4    24     1    1
     5     1     2    1
     6     2     3   am
     7     3     4    2
     8     3     5    1
     9     5    28    1
    10    28    29    1
    11    29    30   ar
    12    30    31   ar
    13    31    32   ar
    14    32    33   ar
    15    33    34   ar
    16     5     6    1
    17     6     7    1
    18     6     8   am
    19     8     9    2
    20     8    10    1
    21    10    21    1
    22    21    22    1
    23    21    23    1
    24    10    11    1
    25    11    12   am
    26    12    13    2
    27    12    14    1
    28    14    35    1
    29    35    36    1
    30    36    37   ar
    31    37    38   ar
    32    38    39   ar
    33    39    40   ar
    34    40    41   ar
    35    14    15    1
    36    15    16    1
    37    15    17   am
    38    17    18    2
    39    17     1    1
    40    34    29   ar
    41    41    36   ar
    42     2    19    1
    43    11    20    1
@<TRIPOS>MOLECULE
*****
 41 43 0 0 0
SMALL
GASTEIGER

@<TRIPOS>ATOM
      1 CA        137.5364  141.2264  155.2264 C.3     1  ILE1        0.1487
      2 N         138.0486  139.8349  155.4532 N.am    1  ILE1       -0.2970
      3 C         139.1447  138.9095  155.8912 C.2     4  PHE4        0.2412
      4 O         138.5839  137.5301  155.7098 O.2     4  PHE4       -0.2733
      5 CA        140.5313  138.6979  156.4231 C.3     4  PHE4        0.1562
      6 N         141.8366  139.2571  156.9064 N.am    4  PHE4       -0.2696
      7 C         142.6691  138.0577  157.2505 C.3     0  ACE0        0.1153
      8 C         142.7109  140.4371  157.2115 C.2     3  VAL3        0.2439
      9 O         143.9960  139.8485  157.7136 O.2     3  VAL3       -0.2731
     10 CA        142.9200  141.9218  157.2567 C.3     3  VAL3        0.1487
     11 N         142.4078  143.3133  157.0299 N.am    3  VAL3       -0.2970
     12 C         141.3117  144.2387  156.5919 C.2     2  PHE2        0.2412
     13 O         141.8726  145.6181  156.7732 O.2     2  PHE2       -0.2733
     14 CA        139.9252  144.4503  156.0600 C.3     2  PHE2        0.1562
     15 N         138.6199  143.8910  155.5767 N.am    2  PHE2       -0.2696
     16 C         137.7874  145.0905  155.2326 C.3     0  ACE0        0.1153
     17 C         137.7456  142.7111  155.2716 C.2     1  ILE1        0.2439
     18 O         136.4605  143.2997  154.7695 O.2     1  ILE1       -0.2731
     19 H         137.3081  139.2440  155.1853 H       1  ILE1        0.1499
     20 H         143.1484  143.9042  157.2977 H       3  VAL3        0.1499
     21 CB        144.3134  142.1017  157.7822 C.3     3  VAL3        0.0269
     22 CG1       144.5391  142.3251  159.2482 C.3     3  VAL3        0.0022
     23 CG2       145.4811  142.0583  156.8417 C.3     3  VAL3        0.0022
     24 CB        136.1431  141.0465  154.7009 C.3     1  ILE1        0.0269
     25 CG2       135.9068  140.9385  153.2236 C.3     1  ILE1        0.0022
     26 CD1       134.1758  139.7162  155.7545 C.3     1  ILE1        0.0001
     27 CG1       134.9860  140.9744  155.6527 C.3     1  ILE1        0.0021
     28 CB        140.6881  137.2091  156.5171 C.3     4  PHE4        0.0555
     29 CG        141.0991  136.4205  155.3092 C.ar    4  PHE4       -0.0200
     30 CD1       141.4429  137.1288  154.0323 C.ar    4  PHE4       -0.0042
     31 CE1       141.8539  136.3402  152.8244 C.ar    4  PHE4       -0.0003
     32 CZ        141.9212  134.8433  152.8932 C.ar    4  PHE4       -0.0000
     33 CE2       141.5774  134.1350  154.1699 C.ar    4  PHE4       -0.0003
     34 CD2       141.1664  134.9236  155.3779 C.ar    4  PHE4       -0.0042
     35 CB        139.7684  145.9391  155.9660 C.3     2  PHE2        0.0555
     36 CG        140.1605  146.6567  154.7085 C.ar    2  PHE2       -0.0200
     37 CD1       139.8248  148.1087  154.5377 C.ar    2  PHE2       -0.0042
     38 CE1       140.2170  148.8262  153.2803 C.ar    2  PHE2       -0.0003
     39 CZ        140.9448  148.0919  152.1935 C.ar    2  PHE2       -0.0000
     40 CE2       141.2805  146.6400  152.3643 C.ar    2  PHE2       -0.0003
     41 CD2       140.8883  145.9223  153.6218 C.ar    2  PHE2       -0.0042
@<TRIPOS>BOND
     1    26    27    1
     2    27    24    1
     3    24    25    1
     4    24     1    1
     5     1     2    1
     6     2     3   am
     7     3     4    2
     8     3     5    1
     9     5    28    1
    10    28    29    1
    11    29    30   ar
    12    30    31   ar
    13    31    32   ar
    14    32    33   ar
    15    33    34   ar
    16     5     6    1
    17     6     7    1
    18     6     8   am
    19     8     9    2
    20     8    10    1
    21    10    21    1
    22    21    22    1
    23    21    23    1
    24    10    11    1
    25    11    12   am
    26    12    13    2
    27    12    14    1
    28    14    35    1
    29    35    36    1
    30    36    37   ar
    31    37    38   ar
    32    38    39   ar
    33    39    40   ar
    34    40    41   ar
    35    14    15    1
    36    15    16    1
    37    15    17   am
    38    17    18    2
    39    17     1    1
    40    34    29   ar
    41    41    36   ar
    42     2    19    1
    43    11    20    1
@<TRIPOS>MOLECULE
*****
 41 43 0 0 0
SMALL
GASTEIGER

@<TRIPOS>ATOM
      1 CA        142.8505  141.5878  157.1921 C.3     1  ILE1        0.1487
      2 N         142.3020  142.9706  156.9988 N.am    1  ILE1       -0.2970
      3 C         141.1726  143.8772  156.6089 C.2     4  PHE4        0.2412
      4 O         141.7104  145.2662  156.7871 O.2     4  PHE4       -0.2733
      5 CA        139.7647  144.0651  156.1266 C.3     4  PHE4        0.1562
      6 N         138.4556  143.4836  155.6814 N.am    4  PHE4       -0.2696
      7 C         137.5870  144.6687  155.3794 C.3     0  ACE0        0.1153
      8 C         137.5962  142.2887  155.3924 C.2     3  VAL3        0.2439
      9 O         136.2827  142.8553  154.9409 O.2     3  VAL3       -0.2731
     10 CA        137.4165  140.8005  155.3371 C.3     3  VAL3        0.1487
     11 N         137.9650  139.4178  155.5304 N.am    3  VAL3       -0.2970
     12 C         139.0945  138.5111  155.9203 C.2     2  PHE2        0.2412
     13 O         138.5566  137.1222  155.7421 O.2     2  PHE2       -0.2733
     14 CA        140.5024  138.3233  156.4026 C.3     2  PHE2        0.1562
     15 N         141.8114  138.9048  156.8478 N.am    2  PHE2       -0.2696
     16 C         142.6800  137.7196  157.1497 C.3     0  ACE0        0.1153
     17 C         142.6709  140.0996  157.1368 C.2     1  ILE1        0.2439
     18 O         143.9844  139.5331  157.5883 O.2     1  ILE1       -0.2731
     19 H         143.0387  143.5741  157.2483 H       1  ILE1        0.1499
     20 H         137.2283  138.8143  155.2809 H       3  VAL3        0.1499
     21 CB        136.0101  140.5968  154.8570 C.3     3  VAL3        0.0269
     22 CG1       134.8838  140.5226  155.8448 C.3     3  VAL3        0.0022
     23 CG2       135.7301  140.4672  153.3891 C.3     3  VAL3        0.0022
     24 CB        144.2569  141.7916  157.6722 C.3     1  ILE1        0.0269
     25 CG2       144.5125  142.2050  159.0912 C.3     1  ILE1        0.0022
     26 CD1       145.5320  142.4255  155.4991 C.3     1  ILE1        0.0001
     27 CG1       145.4077  141.5820  156.7333 C.3     1  ILE1        0.0021
     28 CB        139.5737  145.5512  156.0552 C.3     4  PHE4        0.0555
     29 CG        140.0293  146.3085  154.8433 C.ar    4  PHE4       -0.0200
     30 CD1       140.7163  145.5866  153.7221 C.ar    4  PHE4       -0.0042
     31 CE1       141.1719  146.3439  152.5102 C.ar    4  PHE4       -0.0003
     32 CZ        140.9406  147.8231  152.4193 C.ar    4  PHE4       -0.0000
     33 CE2       140.2537  148.5451  153.5404 C.ar    4  PHE4       -0.0003
     34 CD2       139.7980  147.7878  154.7524 C.ar    4  PHE4       -0.0042
     35 CB        140.6933  136.8372  156.4740 C.3     2  PHE2        0.0555
     36 CG        141.0991  136.0734  155.2485 C.ar    2  PHE2       -0.0200
     37 CD1       141.3309  136.7980  153.9556 C.ar    2  PHE2       -0.0042
     38 CE1       141.7366  136.0342  152.7301 C.ar    2  PHE2       -0.0003
     39 CZ        141.9106  134.5458  152.7973 C.ar    2  PHE2       -0.0000
     40 CE2       141.6788  133.8213  154.0901 C.ar    2  PHE2       -0.0003
     41 CD2       141.2731  134.5850  155.3157 C.ar    2  PHE2       -0.0042
@<TRIPOS>BOND
     1    26    27    1
     2    27    24    1
     3    24    25    1
     4    24     1    1
     5     1     2    1
     6     2     3   am
     7     3     4    2
     8     3     5    1
     9     5    28    1
    10    28    29    1
    11    29    30   ar
    12    30    31   ar
    13    31    32   ar
    14    32    33   ar
    15    33    34   ar
    16     5     6    1
    17     6     7    1
    18     6     8   am
    19     8     9    2
    20     8    10    1
    21    10    21    1
    22    21    22    1
    23    21    23    1
    24    10    11    1
    25    11    12   am
    26    12    13    2
    27    12    14    1
    28    14    35    1
    29    35    36    1
    30    36    37   ar
    31    37    38   ar
    32    38    39   ar
    33    39    40   ar
    34    40    41   ar
    35    14    15    1
    36    15    16    1
    37    15    17   am
    38    17    18    2
    39    17     1    1
    40    34    29   ar
    41    41    36   ar
    42     2    19    1
    43    11    20    1
@<TRIPOS>MOLECULE
*****
 41 43 0 0 0
SMALL
GASTEIGER

@<TRIPOS>ATOM
      1 CA        140.7045  144.7897  157.0180 C.3     1  ILE1        0.1487
      2 N         140.3100  145.3280  158.3614 N.am    1  ILE1       -0.2970
      3 C         140.4299  145.3048  159.8563 C.2     4  PHE4        0.2412
      4 O         139.4982  146.3777  160.3372 O.2     4  PHE4       -0.2733
      5 CA        141.0319  144.7263  161.1025 C.3     4  PHE4        0.1562
      6 N         141.9549  143.7475  161.7658 N.am    4  PHE4       -0.2696
      7 C         141.8127  144.0141  163.2351 C.3     0  ACE0        0.1153
      8 C         142.9515  142.6307  161.6685 C.2     3  VAL3        0.2439
      9 O         143.3252  142.3192  163.0875 O.2     3  VAL3       -0.2731
     10 CA        143.7546  141.6750  160.8369 C.3     3  VAL3        0.1487
     11 N         144.1491  141.1367  159.4935 N.am    3  VAL3       -0.2970
     12 C         144.0293  141.1599  157.9985 C.2     2  PHE2        0.2412
     13 O         144.9609  140.0870  157.5177 O.2     2  PHE2       -0.2733
     14 CA        143.4272  141.7384  156.7524 C.3     2  PHE2        0.1562
     15 N         142.5042  142.7172  156.0891 N.am    2  PHE2       -0.2696
     16 C         142.6464  142.4505  154.6198 C.3     0  ACE0        0.1153
     17 C         141.5077  143.8340  156.1863 C.2     1  ILE1        0.2439
     18 O         141.1339  144.1455  154.7673 O.2     1  ILE1       -0.2731
     19 H         139.6579  146.0400  158.1691 H       1  ILE1        0.1499
     20 H         144.8013  140.4247  159.6858 H       3  VAL3        0.1499
     21 CB        144.5441  140.8688  161.8253 C.3     3  VAL3        0.0269
     22 CG1       145.6063  141.5289  162.6535 C.3     3  VAL3        0.0022
     23 CG2       144.2713  139.4026  161.9855 C.3     3  VAL3        0.0022
     24 CB        139.9151  145.5959  156.0296 C.3     1  ILE1        0.0269
     25 CG2       138.5482  145.1408  155.6120 C.3     1  ILE1        0.0022
     26 CD1       139.6708  147.7078  154.5363 C.3     1  ILE1        0.0001
     27 CG1       140.4925  146.8571  155.4588 C.3     1  ILE1        0.0021
     28 CB        140.4120  145.4997  162.2284 C.3     4  PHE4        0.0555
     29 CG        139.3656  144.8591  163.0914 C.ar    4  PHE4       -0.0200
     30 CD1       139.2644  145.2239  164.5429 C.ar    4  PHE4       -0.0042
     31 CE1       138.2180  144.5833  165.4059 C.ar    4  PHE4       -0.0003
     32 CZ        137.2729  143.5781  164.8175 C.ar    4  PHE4       -0.0000
     33 CE2       137.3741  143.2134  163.3661 C.ar    4  PHE4       -0.0003
     34 CD2       138.4205  143.8539  162.5030 C.ar    4  PHE4       -0.0042
     35 CB        144.0472  140.9650  155.6265 C.3     2  PHE2        0.0555
     36 CG        145.3097  141.4579  154.9839 C.ar    2  PHE2       -0.0200
     37 CD1       145.7936  140.8366  153.7072 C.ar    2  PHE2       -0.0042
     38 CE1       147.0562  141.3295  153.0646 C.ar    2  PHE2       -0.0003
     39 CZ        147.8349  142.4438  153.6986 C.ar    2  PHE2       -0.0000
     40 CE2       147.3510  143.0652  154.9752 C.ar    2  PHE2       -0.0003
     41 CD2       146.0884  142.5722  155.6179 C.ar    2  PHE2       -0.0042
@<TRIPOS>BOND
     1    26    27    1
     2    27    24    1
     3    24    25    1
     4    24     1    1
     5     1     2    1
     6     2     3   am
     7     3     4    2
     8     3     5    1
     9     5    28    1
    10    28    29    1
    11    29    30   ar
    12    30    31   ar
    13    31    32   ar
    14    32    33   ar
    15    33    34   ar
    16     5     6    1
    17     6     7    1
    18     6     8   am
    19     8     9    2
    20     8    10    1
    21    10    21    1
    22    21    22    1
    23    21    23    1
    24    10    11    1
    25    11    12   am
    26    12    13    2
    27    12    14    1
    28    14    35    1
    29    35    36    1
    30    36    37   ar
    31    37    38   ar
    32    38    39   ar
    33    39    40   ar
    34    40    41   ar
    35    14    15    1
    36    15    16    1
    37    15    17   am
    38    17    18    2
    39    17     1    1
    40    34    29   ar
    41    41    36   ar
    42     2    19    1
    43    11    20    1
@<TRIPOS>MOLECULE
*****
 41 43 0 0 0
SMALL
GASTEIGER

@<TRIPOS>ATOM
      1 CA        140.1516  143.5590  157.1254 C.3     1  ILE1        0.1487
      2 N         139.4031  143.3531  158.4090 N.am    1  ILE1       -0.2970
      3 C         139.1890  142.5840  159.6788 C.2     4  PHE4        0.2412
      4 O         138.0458  143.2739  160.3625 O.2     4  PHE4       -0.2733
      5 CA        139.5666  141.4579  160.5949 C.3     4  PHE4        0.1562
      6 N         140.4348  140.2764  160.9116 N.am    4  PHE4       -0.2696
      7 C         139.9365  139.7717  162.2334 C.3     0  ACE0        0.1153
      8 C         141.5609  139.3562  160.5442 C.2     3  VAL3        0.2439
      9 O         141.6455  138.3751  161.6758 O.2     3  VAL3       -0.2731
     10 CA        142.6432  138.9437  159.5911 C.3     3  VAL3        0.1487
     11 N         143.3917  139.1496  158.3076 N.am    3  VAL3       -0.2970
     12 C         143.6058  139.9186  157.0377 C.2     2  PHE2        0.2412
     13 O         144.7490  139.2288  156.3541 O.2     2  PHE2       -0.2733
     14 CA        143.2282  141.0448  156.1216 C.3     2  PHE2        0.1562
     15 N         142.3600  142.2263  155.8049 N.am    2  PHE2       -0.2696
     16 C         142.8583  142.7310  154.4831 C.3     0  ACE0        0.1153
     17 C         141.2339  143.1465  156.1723 C.2     1  ILE1        0.2439
     18 O         141.1493  144.1276  155.0407 O.2     1  ILE1       -0.2731
     19 H         138.7256  144.0671  158.4262 H       1  ILE1        0.1499
     20 H         144.0692  138.4356  158.2903 H       3  VAL3        0.1499
     21 CB        143.2881  137.7491  160.2292 C.3     3  VAL3        0.0269
     22 CG1       143.1127  136.3886  159.6226 C.3     3  VAL3        0.0022
     23 CG2       144.1083  137.9152  161.4741 C.3     3  VAL3        0.0022
     24 CB        139.5067  144.7535  156.4873 C.3     1  ILE1        0.0269
     25 CG2       138.3793  144.5676  155.5156 C.3     1  ILE1        0.0022
     26 CD1       139.2070  147.3315  156.3691 C.3     1  ILE1        0.0001
     27 CG1       139.9893  146.1340  156.8208 C.3     1  ILE1        0.0021
     28 CB        138.6189  141.5648  161.7527 C.3     4  PHE4        0.0555
     29 CG        138.8454  142.6001  162.8142 C.ar    4  PHE4       -0.0200
     30 CD1       137.7041  143.0533  163.6757 C.ar    4  PHE4       -0.0042
     31 CE1       137.9306  144.0885  164.7372 C.ar    4  PHE4       -0.0003
     32 CZ        139.2985  144.6707  164.9373 C.ar    4  PHE4       -0.0000
     33 CE2       140.4398  144.2176  164.0759 C.ar    4  PHE4       -0.0003
     34 CD2       140.2133  143.1822  163.0144 C.ar    4  PHE4       -0.0042
     35 CB        144.1759  140.9379  154.9638 C.3     2  PHE2        0.0555
     36 CG        145.5807  141.4471  155.0949 C.ar    2  PHE2       -0.0200
     37 CD1       146.5620  141.2364  153.9801 C.ar    2  PHE2       -0.0042
     38 CE1       147.9667  141.7456  154.1113 C.ar    2  PHE2       -0.0003
     39 CZ        148.3903  142.4655  155.3572 C.ar    2  PHE2       -0.0000
     40 CE2       147.4091  142.6761  156.4720 C.ar    2  PHE2       -0.0003
     41 CD2       146.0043  142.1669  156.3409 C.ar    2  PHE2       -0.0042
@<TRIPOS>BOND
     1    26    27    1
     2    27    24    1
     3    24    25    1
     4    24     1    1
     5     1     2    1
     6     2     3   am
     7     3     4    2
     8     3     5    1
     9     5    28    1
    10    28    29    1
    11    29    30   ar
    12    30    31   ar
    13    31    32   ar
    14    32    33   ar
    15    33    34   ar
    16     5     6    1
    17     6     7    1
    18     6     8   am
    19     8     9    2
    20     8    10    1
    21    10    21    1
    22    21    22    1
    23    21    23    1
    24    10    11    1
    25    11    12   am
    26    12    13    2
    27    12    14    1
    28    14    35    1
    29    35    36    1
    30    36    37   ar
    31    37    38   ar
    32    38    39   ar
    33    39    40   ar
    34    40    41   ar
    35    14    15    1
    36    15    16    1
    37    15    17   am
    38    17    18    2
    39    17     1    1
    40    34    29   ar
    41    41    36   ar
    42     2    19    1
    43    11    20    1
