@<TRIPOS>MOLECULE
*****
 28 31 0 0 0
SMALL
GASTEIGER

@<TRIPOS>ATOM
      1 C         140.7609  140.0505  166.0394 C.ar    1  UNL1        0.0651
      2 C         141.4153  140.0681  164.6898 C.ar    1  UNL1        0.0177
      3 C         140.6131  139.7494  163.4630 C.ar    1  UNL1        0.0060
      4 C         139.1565  139.4130  163.5858 C.ar    1  UNL1        0.0537
      5 C         138.5020  139.3953  164.9354 C.ar    1  UNL1        0.0060
      6 C         139.3042  139.7140  166.1622 C.ar    1  UNL1        0.0177
      7 C         143.3025  138.3421  167.1667 C.3     1  UNL1        0.0722
      8 C         142.7313  139.5839  167.7843 C.ar    1  UNL1        0.1246
      9 N         143.2279  140.2586  169.0286 N.ar    1  UNL1       -0.2306
     10 C         142.3667  141.4608  169.2793 C.ar    1  UNL1        0.0986
     11 C         142.3865  142.5021  170.3588 C.ar    1  UNL1        0.0206
     12 C         141.3772  143.6118  170.3490 C.ar    1  UNL1        0.0016
     13 C         140.3482  143.6801  169.2597 C.ar    1  UNL1        0.0016
     14 C         140.3284  142.6388  168.1803 C.ar    1  UNL1        0.0191
     15 C         141.3377  141.5292  168.1901 C.ar    1  UNL1        0.0826
     16 N         141.5630  140.3692  167.2661 N.ar    1  UNL1       -0.2936
     17 C         138.3544  139.0942  162.3590 C.2     1  UNL1        0.2491
     18 O         138.0285  137.6685  162.0256 O.2     1  UNL1       -0.2699
     19 N         137.8782  140.2011  161.4657 N.am    1  UNL1       -0.2745
     20 C         137.0761  139.8823  160.2389 C.3     1  UNL1        0.1151
     21 C         138.2041  141.6268  161.7992 C.3     1  UNL1        0.0930
     22 C         137.5435  142.4575  162.8592 C.3     1  UNL1        0.0386
     23 C         138.1790  143.8161  162.8464 C.3     1  UNL1        0.0738
     24 N         139.2324  143.8252  161.7786 N.3     1  UNL1       -0.2725
     25 C         139.2479  142.4720  161.1314 C.3     1  UNL1        0.0921
     26 C         140.1152  144.9838  161.4208 C.3     1  UNL1        0.0576
     27 C         141.4120  144.7459  160.7056 C.3     1  UNL1        0.0173
     28 C         139.7012  146.3806  161.7782 C.3     1  UNL1        0.0173
@<TRIPOS>BOND
     1     7     8    1
     2     8     9   ar
     3     9    10   ar
     4    10    11   ar
     5    11    12   ar
     6    12    13   ar
     7    13    14   ar
     8    14    15   ar
     9    15    16   ar
    10    16     1    1
    11     1     2   ar
    12     2     3   ar
    13     3     4   ar
    14     4    17    1
    15    17    18    2
    16    17    19   am
    17    19    20    1
    18    21    19    1
    19    21    22    1
    20    22    23    1
    21    23    24    1
    22    24    26    1
    23    26    27    1
    24    26    28    1
    25    24    25    1
    26     4     5   ar
    27     5     6   ar
    28    16     8   ar
    29     6     1   ar
    30    15    10   ar
    31    25    21    1
@<TRIPOS>MOLECULE
*****
 28 31 0 0 0
SMALL
GASTEIGER

@<TRIPOS>ATOM
      1 C         139.4383  139.3254  165.3573 C.ar    1  UNL1        0.0651
      2 C         139.8919  137.9643  164.9196 C.ar    1  UNL1        0.0177
      3 C         140.0894  137.6723  163.4616 C.ar    1  UNL1        0.0060
      4 C         139.8331  138.7415  162.4412 C.ar    1  UNL1        0.0537
      5 C         139.3795  140.1026  162.8788 C.ar    1  UNL1        0.0060
      6 C         139.1821  140.3946  164.3368 C.ar    1  UNL1        0.0177
      7 C         137.2030  137.9575  167.3020 C.3     1  UNL1        0.0722
      8 C         138.2134  138.9886  167.7091 C.ar    1  UNL1        0.1246
      9 N         138.3738  139.5721  169.0817 N.ar    1  UNL1       -0.2306
     10 C         139.5004  140.5614  169.0361 C.ar    1  UNL1        0.0986
     11 C         140.1075  141.4404  170.0891 C.ar    1  UNL1        0.0206
     12 C         141.2504  142.3474  169.7413 C.ar    1  UNL1        0.0016
     13 C         141.7863  142.3754  168.3406 C.ar    1  UNL1        0.0016
     14 C         141.1792  141.4964  167.2876 C.ar    1  UNL1        0.0191
     15 C         140.0363  140.5894  167.6354 C.ar    1  UNL1        0.0826
     16 N         139.2409  139.6174  166.8153 N.ar    1  UNL1       -0.2936
     17 C         140.0306  138.4495  160.9832 C.2     1  UNL1        0.2491
     18 O         138.8803  137.9608  160.1538 O.2     1  UNL1       -0.2699
     19 N         141.3783  138.6462  160.3547 N.am    1  UNL1       -0.2745
     20 C         141.5756  138.3542  158.8967 C.3     1  UNL1        0.1151
     21 C         142.5285  139.1349  161.1842 C.3     1  UNL1        0.0930
     22 C         143.4514  138.2807  162.0019 C.3     1  UNL1        0.0386
     23 C         144.4511  139.1815  162.6647 C.3     1  UNL1        0.0738
     24 N         144.1461  140.5923  162.2566 N.3     1  UNL1       -0.2725
     25 C         142.9578  140.5635  161.3416 C.3     1  UNL1        0.0921
     26 C         144.8974  141.8168  162.6878 C.3     1  UNL1        0.0576
     27 C         144.6367  143.1322  162.0156 C.3     1  UNL1        0.0173
     28 C         145.9094  141.7261  163.7913 C.3     1  UNL1        0.0173
@<TRIPOS>BOND
     1     7     8    1
     2     8     9   ar
     3     9    10   ar
     4    10    11   ar
     5    11    12   ar
     6    12    13   ar
     7    13    14   ar
     8    14    15   ar
     9    15    16   ar
    10    16     1    1
    11     1     2   ar
    12     2     3   ar
    13     3     4   ar
    14     4    17    1
    15    17    18    2
    16    17    19   am
    17    19    20    1
    18    21    19    1
    19    21    22    1
    20    22    23    1
    21    23    24    1
    22    24    26    1
    23    26    27    1
    24    26    28    1
    25    24    25    1
    26     4     5   ar
    27     5     6   ar
    28    16     8   ar
    29     6     1   ar
    30    15    10   ar
    31    25    21    1
@<TRIPOS>MOLECULE
*****
 28 31 0 0 0
SMALL
GASTEIGER

@<TRIPOS>ATOM
      1 C         140.7683  139.4798  165.8873 C.ar    1  UNL1        0.0651
      2 C         142.0283  138.6928  165.6796 C.ar    1  UNL1        0.0177
      3 C         142.5248  138.4249  164.2898 C.ar    1  UNL1        0.0060
      4 C         141.7614  138.9439  163.1075 C.ar    1  UNL1        0.0537
      5 C         140.5014  139.7308  163.3151 C.ar    1  UNL1        0.0060
      6 C         140.0048  139.9988  164.7049 C.ar    1  UNL1        0.0177
      7 C         137.8039  138.7487  167.0394 C.3     1  UNL1        0.0722
      8 C         138.9092  139.4117  167.8067 C.ar    1  UNL1        0.1246
      9 N         138.8460  139.8551  169.2382 N.ar    1  UNL1       -0.2306
     10 C         140.1695  140.4651  169.5934 C.ar    1  UNL1        0.0986
     11 C         140.6861  141.0725  170.8639 C.ar    1  UNL1        0.0206
     12 C         142.0839  141.6135  170.9224 C.ar    1  UNL1        0.0016
     13 C         142.9651  141.5471  169.7103 C.ar    1  UNL1        0.0016
     14 C         142.4485  140.9398  168.4398 C.ar    1  UNL1        0.0191
     15 C         141.0507  140.3988  168.3814 C.ar    1  UNL1        0.0826
     16 N         140.2718  139.7477  167.2771 N.ar    1  UNL1       -0.2936
     17 C         142.2579  138.6759  161.7177 C.2     1  UNL1        0.2491
     18 O         141.8763  137.4058  161.0169 O.2     1  UNL1       -0.2699
     19 N         143.1360  139.6780  161.0287 N.am    1  UNL1       -0.2745
     20 C         143.6325  139.4100  159.6389 C.3     1  UNL1        0.1151
     21 C         143.5176  140.9481  161.7296 C.3     1  UNL1        0.0930
     22 C         144.8454  141.2409  162.3630 C.3     1  UNL1        0.0386
     23 C         144.7868  142.6221  162.9450 C.3     1  UNL1        0.0738
     24 N         143.4228  143.1830  162.6714 N.3     1  UNL1       -0.2725
     25 C         142.6384  142.1484  161.9202 C.3     1  UNL1        0.0921
     26 C         142.9298  144.5402  163.0775 C.3     1  UNL1        0.0576
     27 C         143.7548  145.3947  163.9935 C.3     1  UNL1        0.0173
     28 C         141.6117  145.0429  162.5677 C.3     1  UNL1        0.0173
@<TRIPOS>BOND
     1     7     8    1
     2     8     9   ar
     3     9    10   ar
     4    10    11   ar
     5    11    12   ar
     6    12    13   ar
     7    13    14   ar
     8    14    15   ar
     9    15    16   ar
    10    16     1    1
    11     1     2   ar
    12     2     3   ar
    13     3     4   ar
    14     4    17    1
    15    17    18    2
    16    17    19   am
    17    19    20    1
    18    21    19    1
    19    21    22    1
    20    22    23    1
    21    23    24    1
    22    24    26    1
    23    26    27    1
    24    26    28    1
    25    24    25    1
    26     4     5   ar
    27     5     6   ar
    28    16     8   ar
    29     6     1   ar
    30    15    10   ar
    31    25    21    1
@<TRIPOS>MOLECULE
*****
 28 31 0 0 0
SMALL
GASTEIGER

@<TRIPOS>ATOM
      1 C         141.1202  139.1320  165.5380 C.ar    1  UNL1        0.0651
      2 C         140.9007  137.7751  164.9377 C.ar    1  UNL1        0.0177
      3 C         141.5282  137.4272  163.6204 C.ar    1  UNL1        0.0060
      4 C         142.3753  138.4363  162.9034 C.ar    1  UNL1        0.0537
      5 C         142.5949  139.7933  163.5038 C.ar    1  UNL1        0.0060
      6 C         141.9674  140.1411  164.8210 C.ar    1  UNL1        0.0177
      7 C         137.9437  138.9379  166.2603 C.3     1  UNL1        0.0722
      8 C         139.0326  139.3906  167.1873 C.ar    1  UNL1        0.1246
      9 N         138.8527  139.8336  168.6091 N.ar    1  UNL1       -0.2306
     10 C         140.2016  140.1966  169.1558 C.ar    1  UNL1        0.0986
     11 C         140.6378  140.6980  170.5005 C.ar    1  UNL1        0.0206
     12 C         142.0876  140.9807  170.7613 C.ar    1  UNL1        0.0016
     13 C         143.1012  140.7620  169.6774 C.ar    1  UNL1        0.0016
     14 C         142.6650  140.2606  168.3327 C.ar    1  UNL1        0.0191
     15 C         141.2152  139.9779  168.0719 C.ar    1  UNL1        0.0826
     16 N         140.4927  139.4798  166.8553 N.ar    1  UNL1       -0.2936
     17 C         143.0028  138.0885  161.5861 C.2     1  UNL1        0.2491
     18 O         144.3488  137.4276  161.5479 O.2     1  UNL1       -0.2699
     19 N         142.2843  138.4015  160.3072 N.am    1  UNL1       -0.2745
     20 C         142.9119  138.0536  158.9899 C.3     1  UNL1        0.1151
     21 C         140.9383  139.0624  160.3455 C.3     1  UNL1        0.0930
     22 C         139.6195  138.3676  160.5124 C.3     1  UNL1        0.0386
     23 C         138.5409  139.4098  160.4937 C.3     1  UNL1        0.0738
     24 N         139.1931  140.7488  160.3152 N.3     1  UNL1       -0.2725
     25 C         140.6748  140.5340  160.2237 C.3     1  UNL1        0.0921
     26 C         138.4875  142.0704  160.2414 C.3     1  UNL1        0.0576
     27 C         138.2696  142.7310  158.9125 C.3     1  UNL1        0.0173
     28 C         137.9998  142.7314  161.4964 C.3     1  UNL1        0.0173
@<TRIPOS>BOND
     1     7     8    1
     2     8     9   ar
     3     9    10   ar
     4    10    11   ar
     5    11    12   ar
     6    12    13   ar
     7    13    14   ar
     8    14    15   ar
     9    15    16   ar
    10    16     1    1
    11     1     2   ar
    12     2     3   ar
    13     3     4   ar
    14     4    17    1
    15    17    18    2
    16    17    19   am
    17    19    20    1
    18    21    19    1
    19    21    22    1
    20    22    23    1
    21    23    24    1
    22    24    26    1
    23    26    27    1
    24    26    28    1
    25    24    25    1
    26     4     5   ar
    27     5     6   ar
    28    16     8   ar
    29     6     1   ar
    30    15    10   ar
    31    25    21    1
@<TRIPOS>MOLECULE
*****
 28 31 0 0 0
SMALL
GASTEIGER

@<TRIPOS>ATOM
      1 C         139.1075  140.5083  165.1517 C.ar    1  UNL1        0.0651
      2 C         139.9048  139.6696  164.1974 C.ar    1  UNL1        0.0177
      3 C         139.7301  139.8454  162.7180 C.ar    1  UNL1        0.0060
      4 C         138.7580  140.8600  162.1929 C.ar    1  UNL1        0.0537
      5 C         137.9606  141.6987  163.1472 C.ar    1  UNL1        0.0060
      6 C         138.1353  141.5229  164.6266 C.ar    1  UNL1        0.0177
      7 C         137.4795  138.4013  167.0385 C.3     1  UNL1        0.0722
      8 C         138.5339  139.3640  167.4984 C.ar    1  UNL1        0.1246
      9 N         139.0251  139.5273  168.9062 N.ar    1  UNL1       -0.2306
     10 C         140.0770  140.5967  168.9091 C.ar    1  UNL1        0.0986
     11 C         140.9106  141.1817  170.0103 C.ar    1  UNL1        0.0206
     12 C         141.9031  142.2642  169.7055 C.ar    1  UNL1        0.0016
     13 C         142.0620  142.7618  168.2994 C.ar    1  UNL1        0.0016
     14 C         141.2284  142.1769  167.1981 C.ar    1  UNL1        0.0191
     15 C         140.2358  141.0944  167.5030 C.ar    1  UNL1        0.0826
     16 N         139.2822  140.3325  166.6311 N.ar    1  UNL1       -0.2936
     17 C         138.5833  141.0357  160.7135 C.2     1  UNL1        0.2491
     18 O         137.7052  140.0934  159.9449 O.2     1  UNL1       -0.2699
     19 N         139.2868  142.1538  160.0029 N.am    1  UNL1       -0.2745
     20 C         139.1120  142.3295  158.5235 C.3     1  UNL1        0.1151
     21 C         140.1649  143.0961  160.7716 C.3     1  UNL1        0.0930
     22 C         139.7930  144.4771  161.2240 C.3     1  UNL1        0.0386
     23 C         140.9673  145.0573  161.9549 C.3     1  UNL1        0.0738
     24 N         142.0650  144.0350  161.9542 N.3     1  UNL1       -0.2725
     25 C         141.5690  142.8229  161.2229 C.3     1  UNL1        0.0921
     26 C         143.4206  144.1965  162.5758 C.3     1  UNL1        0.0576
     27 C         143.6090  145.1340  163.7314 C.3     1  UNL1        0.0173
     28 C         144.5878  143.4204  162.0416 C.3     1  UNL1        0.0173
@<TRIPOS>BOND
     1     7     8    1
     2     8     9   ar
     3     9    10   ar
     4    10    11   ar
     5    11    12   ar
     6    12    13   ar
     7    13    14   ar
     8    14    15   ar
     9    15    16   ar
    10    16     1    1
    11     1     2   ar
    12     2     3   ar
    13     3     4   ar
    14     4    17    1
    15    17    18    2
    16    17    19   am
    17    19    20    1
    18    21    19    1
    19    21    22    1
    20    22    23    1
    21    23    24    1
    22    24    26    1
    23    26    27    1
    24    26    28    1
    25    24    25    1
    26     4     5   ar
    27     5     6   ar
    28    16     8   ar
    29     6     1   ar
    30    15    10   ar
    31    25    21    1
@<TRIPOS>MOLECULE
*****
 28 31 0 0 0
SMALL
GASTEIGER

@<TRIPOS>ATOM
      1 C         139.7450  142.3555  165.3961 C.ar    1  UNL1        0.0651
      2 C         141.0862  142.8421  164.9336 C.ar    1  UNL1        0.0177
      3 C         141.1856  143.7479  163.7421 C.ar    1  UNL1        0.0060
      4 C         139.9435  144.1670  163.0129 C.ar    1  UNL1        0.0537
      5 C         138.6021  143.6803  163.4754 C.ar    1  UNL1        0.0060
      6 C         138.5028  142.7745  164.6669 C.ar    1  UNL1        0.0177
      7 C         138.5924  139.3024  165.3940 C.3     1  UNL1        0.0722
      8 C         139.1159  140.0464  166.5866 C.ar    1  UNL1        0.1246
      9 N         139.2015  139.5177  167.9878 N.ar    1  UNL1       -0.2306
     10 C         139.7842  140.5943  168.8547 C.ar    1  UNL1        0.0986
     11 C         140.1003  140.6415  170.3202 C.ar    1  UNL1        0.0206
     12 C         140.6909  141.8829  170.9203 C.ar    1  UNL1        0.0016
     13 C         140.9654  143.0769  170.0550 C.ar    1  UNL1        0.0016
     14 C         140.6493  143.0297  168.5895 C.ar    1  UNL1        0.0191
     15 C         140.0587  141.7883  167.9893 C.ar    1  UNL1        0.0826
     16 N         139.6457  141.4497  166.5876 N.ar    1  UNL1       -0.2936
     17 C         140.0428  145.0727  161.8214 C.2     1  UNL1        0.2491
     18 O         139.9954  146.5607  162.0045 O.2     1  UNL1       -0.2699
     19 N         140.1895  144.4904  160.4468 N.am    1  UNL1       -0.2745
     20 C         140.2888  145.3963  159.2553 C.3     1  UNL1        0.1151
     21 C         140.2370  143.0024  160.2638 C.3     1  UNL1        0.0930
     22 C         139.0618  142.1089  159.9983 C.3     1  UNL1        0.0386
     23 C         139.5664  140.7009  159.8846 C.3     1  UNL1        0.0738
     24 N         141.0534  140.7242  160.0798 N.3     1  UNL1       -0.2725
     25 C         141.4679  142.1467  160.3143 C.3     1  UNL1        0.0921
     26 C         141.9658  139.5341  160.0466 C.3     1  UNL1        0.0576
     27 C         143.2311  139.5813  159.2424 C.3     1  UNL1        0.0173
     28 C         141.6129  138.2967  160.8175 C.3     1  UNL1        0.0173
@<TRIPOS>BOND
     1     7     8    1
     2     8     9   ar
     3     9    10   ar
     4    10    11   ar
     5    11    12   ar
     6    12    13   ar
     7    13    14   ar
     8    14    15   ar
     9    15    16   ar
    10    16     1    1
    11     1     2   ar
    12     2     3   ar
    13     3     4   ar
    14     4    17    1
    15    17    18    2
    16    17    19   am
    17    19    20    1
    18    21    19    1
    19    21    22    1
    20    22    23    1
    21    23    24    1
    22    24    26    1
    23    26    27    1
    24    26    28    1
    25    24    25    1
    26     4     5   ar
    27     5     6   ar
    28    16     8   ar
    29     6     1   ar
    30    15    10   ar
    31    25    21    1
@<TRIPOS>MOLECULE
*****
 28 31 0 0 0
SMALL
GASTEIGER

@<TRIPOS>ATOM
      1 C         141.2419  141.5943  165.6942 C.ar    1  UNL1        0.0651
      2 C         141.8619  142.8740  165.2167 C.ar    1  UNL1        0.0177
      3 C         141.3873  143.5078  163.9428 C.ar    1  UNL1        0.0060
      4 C         140.2926  142.8620  163.1462 C.ar    1  UNL1        0.0537
      5 C         139.6725  141.5824  163.6236 C.ar    1  UNL1        0.0060
      6 C         140.1471  140.9485  164.8975 C.ar    1  UNL1        0.0177
      7 C         143.2515  139.0340  165.9301 C.3     1  UNL1        0.0722
      8 C         142.6402  139.7836  167.0766 C.ar    1  UNL1        0.1246
      9 N         142.8453  139.4880  168.5328 N.ar    1  UNL1       -0.2306
     10 C         142.0483  140.4822  169.3243 C.ar    1  UNL1        0.0986
     11 C         141.8677  140.6763  170.8007 C.ar    1  UNL1        0.0206
     12 C         140.9895  141.7805  171.3100 C.ar    1  UNL1        0.0016
     13 C         140.2919  142.6906  170.3429 C.ar    1  UNL1        0.0016
     14 C         140.4725  142.4964  168.8666 C.ar    1  UNL1        0.0191
     15 C         141.3507  141.3922  168.3573 C.ar    1  UNL1        0.0826
     16 N         141.7165  140.9605  166.9681 N.ar    1  UNL1       -0.2936
     17 C         139.8180  143.4959  161.8722 C.2     1  UNL1        0.2491
     18 O         138.6921  144.4865  161.9016 O.2     1  UNL1       -0.2699
     19 N         140.4694  143.1391  160.5690 N.am    1  UNL1       -0.2745
     20 C         139.9947  143.7731  159.2950 C.3     1  UNL1        0.1151
     21 C         141.5953  142.1485  160.5397 C.3     1  UNL1        0.0930
     22 C         143.0533  142.4662  160.6924 C.3     1  UNL1        0.0386
     23 C         143.8200  141.1804  160.5997 C.3     1  UNL1        0.0738
     24 N         142.8360  140.0680  160.3897 N.3     1  UNL1       -0.2725
     25 C         141.4610  140.6663  160.3526 C.3     1  UNL1        0.0921
     26 C         143.1685  138.6127  160.2426 C.3     1  UNL1        0.0576
     27 C         143.9268  137.9034  161.3251 C.3     1  UNL1        0.0173
     28 C         142.7427  137.8667  159.0129 C.3     1  UNL1        0.0173
@<TRIPOS>BOND
     1     7     8    1
     2     8     9   ar
     3     9    10   ar
     4    10    11   ar
     5    11    12   ar
     6    12    13   ar
     7    13    14   ar
     8    14    15   ar
     9    15    16   ar
    10    16     1    1
    11     1     2   ar
    12     2     3   ar
    13     3     4   ar
    14     4    17    1
    15    17    18    2
    16    17    19   am
    17    19    20    1
    18    21    19    1
    19    21    22    1
    20    22    23    1
    21    23    24    1
    22    24    26    1
    23    26    27    1
    24    26    28    1
    25    24    25    1
    26     4     5   ar
    27     5     6   ar
    28    16     8   ar
    29     6     1   ar
    30    15    10   ar
    31    25    21    1
@<TRIPOS>MOLECULE
*****
 28 31 0 0 0
SMALL
GASTEIGER

@<TRIPOS>ATOM
      1 C         142.6799  140.7211  165.2838 C.ar    1  UNL1        0.0651
      2 C         141.9266  139.9680  164.2278 C.ar    1  UNL1        0.0177
      3 C         142.0443  140.3743  162.7887 C.ar    1  UNL1        0.0060
      4 C         142.9154  141.5337  162.4055 C.ar    1  UNL1        0.0537
      5 C         143.6688  142.2869  163.4615 C.ar    1  UNL1        0.0060
      6 C         143.5510  141.8806  164.9006 C.ar    1  UNL1        0.0177
      7 C         143.8619  137.9820  166.6066 C.3     1  UNL1        0.0722
      8 C         143.1055  139.0558  167.3309 C.ar    1  UNL1        0.1246
      9 N         142.7595  139.0592  168.7905 N.ar    1  UNL1       -0.2306
     10 C         142.0024  140.3203  169.0845 C.ar    1  UNL1        0.0986
     11 C         141.4083  140.8622  170.3507 C.ar    1  UNL1        0.0206
     12 C         140.6922  142.1801  170.3391 C.ar    1  UNL1        0.0016
     13 C         140.5702  142.9562  169.0613 C.ar    1  UNL1        0.0016
     14 C         141.1643  142.4143  167.7951 C.ar    1  UNL1        0.0191
     15 C         141.8804  141.0963  167.8067 C.ar    1  UNL1        0.0826
     16 N         142.5622  140.3148  166.7229 N.ar    1  UNL1       -0.2936
     17 C         143.0331  141.9400  160.9664 C.2     1  UNL1        0.2491
     18 O         143.9877  141.2210  160.0599 O.2     1  UNL1       -0.2699
     19 N         142.1963  143.0652  160.4338 N.am    1  UNL1       -0.2745
     20 C         142.3141  143.4714  158.9946 C.3     1  UNL1        0.1151
     21 C         141.2417  143.7841  161.3404 C.3     1  UNL1        0.0930
     22 C         141.0453  145.2693  161.4145 C.3     1  UNL1        0.0386
     23 C         139.9982  145.5472  162.4519 C.3     1  UNL1        0.0738
     24 N         139.5475  144.2338  163.0190 N.3     1  UNL1       -0.2725
     25 C         140.3160  143.1441  162.3321 C.3     1  UNL1        0.0921
     26 C         138.5103  144.0434  164.0858 C.3     1  UNL1        0.0576
     27 C         138.5553  144.8758  165.3328 C.3     1  UNL1        0.0173
     28 C         137.4280  143.0206  163.9056 C.3     1  UNL1        0.0173
@<TRIPOS>BOND
     1     7     8    1
     2     8     9   ar
     3     9    10   ar
     4    10    11   ar
     5    11    12   ar
     6    12    13   ar
     7    13    14   ar
     8    14    15   ar
     9    15    16   ar
    10    16     1    1
    11     1     2   ar
    12     2     3   ar
    13     3     4   ar
    14     4    17    1
    15    17    18    2
    16    17    19   am
    17    19    20    1
    18    21    19    1
    19    21    22    1
    20    22    23    1
    21    23    24    1
    22    24    26    1
    23    26    27    1
    24    26    28    1
    25    24    25    1
    26     4     5   ar
    27     5     6   ar
    28    16     8   ar
    29     6     1   ar
    30    15    10   ar
    31    25    21    1
@<TRIPOS>MOLECULE
*****
 28 31 0 0 0
SMALL
GASTEIGER

@<TRIPOS>ATOM
      1 C         141.7275  140.1970  160.4217 C.ar    1  UNL1        0.0651
      2 C         142.7631  141.2272  160.0808 C.ar    1  UNL1        0.0177
      3 C         143.6350  141.7995  161.1589 C.ar    1  UNL1        0.0060
      4 C         143.4715  141.3416  162.5778 C.ar    1  UNL1        0.0537
      5 C         142.4359  140.3114  162.9188 C.ar    1  UNL1        0.0060
      6 C         141.5639  139.7391  161.8408 C.ar    1  UNL1        0.0177
      7 C         138.6531  141.0776  159.7719 C.3     1  UNL1        0.0722
      8 C         139.4424  140.0295  159.0450 C.ar    1  UNL1        0.1246
      9 N         138.9572  139.2020  157.8919 N.ar    1  UNL1       -0.2306
     10 C         140.0704  138.2859  157.4778 C.ar    1  UNL1        0.0986
     11 C         140.1673  137.2475  156.3997 C.ar    1  UNL1        0.0206
     12 C         141.4375  136.4704  156.2188 C.ar    1  UNL1        0.0016
     13 C         142.6107  136.7317  157.1162 C.ar    1  UNL1        0.0016
     14 C         142.5139  137.7700  158.1943 C.ar    1  UNL1        0.0191
     15 C         141.2437  138.5471  158.3751 C.ar    1  UNL1        0.0826
     16 N         140.8556  139.6247  159.3437 N.ar    1  UNL1       -0.2936
     17 C         144.3434  141.9140  163.6559 C.2     1  UNL1        0.2491
     18 O         145.6376  141.2428  164.0089 O.2     1  UNL1       -0.2699
     19 N         143.9212  143.1574  164.3808 N.am    1  UNL1       -0.2745
     20 C         144.7933  143.7297  165.4588 C.3     1  UNL1        0.1151
     21 C         142.6270  143.8285  164.0277 C.3     1  UNL1        0.0930
     22 C         142.4274  144.8416  162.9397 C.3     1  UNL1        0.0386
     23 C         140.9823  145.2436  162.9402 C.3     1  UNL1        0.0738
     24 N         140.2888  144.4790  164.0285 N.3     1  UNL1       -0.2725
     25 C         141.3053  143.6044  164.7007 C.3     1  UNL1        0.0921
     26 C         138.8342  144.5725  164.3825 C.3     1  UNL1        0.0576
     27 C         138.4234  145.0089  165.7576 C.3     1  UNL1        0.0173
     28 C         137.7902  144.2297  163.3615 C.3     1  UNL1        0.0173
@<TRIPOS>BOND
     1     7     8    1
     2     8     9   ar
     3     9    10   ar
     4    10    11   ar
     5    11    12   ar
     6    12    13   ar
     7    13    14   ar
     8    14    15   ar
     9    15    16   ar
    10    16     1    1
    11     1     2   ar
    12     2     3   ar
    13     3     4   ar
    14     4    17    1
    15    17    18    2
    16    17    19   am
    17    19    20    1
    18    21    19    1
    19    21    22    1
    20    22    23    1
    21    23    24    1
    22    24    26    1
    23    26    27    1
    24    26    28    1
    25    24    25    1
    26     4     5   ar
    27     5     6   ar
    28    16     8   ar
    29     6     1   ar
    30    15    10   ar
    31    25    21    1
