@<TRIPOS>MOLECULE
*****
 37 41 0 0 0
SMALL
GASTEIGER

@<TRIPOS>ATOM
      1 C         137.9234  142.5163  164.6796 C.3     1  UNL1        0.0768
      2 N         138.2000  141.1090  164.2405 N.3     1  UNL1       -0.2724
      3 C         137.9467  140.5460  162.8734 C.3     1  UNL1        0.0721
      4 C         138.3687  139.1066  162.8793 C.3     1  UNL1        0.0187
      5 C         138.8828  138.7799  164.2501 C.3     1  UNL1        0.0178
      6 C         138.7785  140.0175  165.0913 C.3     1  UNL1        0.0721
      7 C         139.4088  137.4494  164.7006 C.3     1  UNL1        0.0077
      8 C         140.7661  136.9902  164.2569 C.3     1  UNL1        0.0459
      9 C         141.9144  137.9550  164.2355 C.ar    1  UNL1        0.0603
     10 C         142.8159  138.0746  165.4285 C.ar    1  UNL1        0.0145
     11 C         143.9642  139.0395  165.4071 C.ar    1  UNL1       -0.0003
     12 C         144.2110  139.8848  164.1928 C.ar    1  UNL1        0.0092
     13 C         143.3095  139.7652  162.9999 C.ar    1  UNL1        0.1240
     14 N         142.1613  138.8004  163.0212 N.ar    1  UNL1       -0.2356
     15 N         143.5564  140.6106  161.7856 N.pl3   1  UNL1       -0.3184
     16 C         144.7046  141.5754  161.7642 C.3     1  UNL1        0.0885
     17 C         145.6061  141.6949  162.9571 C.3     1  UNL1        0.0260
     18 C         145.3593  140.8497  164.1714 C.3     1  UNL1        0.0309
     19 H         142.9648  140.5321  161.0026 H       1  UNL1        0.1482
     20 C         139.0424  143.5124  164.7538 C.3     1  UNL1        0.0438
     21 C         141.5438  142.4168  167.6336 C.ar    1  UNL1        0.0167
     22 C         142.8532  142.4595  166.9032 C.ar    1  UNL1        0.0015
     23 C         142.8924  142.8532  165.4563 C.ar    1  UNL1       -0.0003
     24 C         141.6222  143.2041  164.7399 C.ar    1  UNL1       -0.0042
     25 C         140.3127  143.1615  165.4703 C.ar    1  UNL1       -0.0207
     26 C         140.2735  142.7678  166.9172 C.ar    1  UNL1       -0.0027
     27 C         142.4686  139.5394  168.8644 C.3     1  UNL1        0.0343
     28 C         141.9297  140.7006  169.6462 C.ar    1  UNL1        0.0163
     29 C         141.7212  140.7431  171.1311 C.ar    1  UNL1        0.1173
     30 N         141.1673  142.0919  171.4831 N.ar    1  UNL1       -0.1680
     31 N         141.0334  142.8830  170.2158 N.ar    1  UNL1       -0.2491
     32 C         140.5187  144.2875  170.1034 C.3     1  UNL1        0.1537
     33 C         141.5046  142.0232  169.0805 C.ar    1  UNL1        0.0754
     34 C         138.8912  144.8595  164.1115 C.3     1  UNL1        0.0474
     35 C         139.1572  145.0251  162.6446 C.2     1  UNL1        0.0507
     36 O         140.0630  146.1208  162.1656 O.co2   1  UNL1       -0.5492
     37 O         138.5176  144.0951  161.6567 O.co2   1  UNL1       -0.5492
@<TRIPOS>UNITY_ATOM_ATTR
36 1
charge -1
@<TRIPOS>BOND
     1    27    28    1
     2    28    29   ar
     3    29    30   ar
     4    30    31   ar
     5    31    32    1
     6    31    33   ar
     7    33    21    1
     8    21    22   ar
     9    22    23   ar
    10    23    24   ar
    11    24    25   ar
    12    25    20    1
    13    20    34    1
    14    34    35    1
    15    35    36   ar
    16    35    37   ar
    17    20     1    1
    18     1     2    1
    19     2     3    1
    20     3     4    1
    21     4     5    1
    22     5     7    1
    23     7     8    1
    24     8     9    1
    25     9    10   ar
    26    10    11   ar
    27    11    12   ar
    28    12    13   ar
    29    13    14   ar
    30    13    15    1
    31    15    16    1
    32    16    17    1
    33    17    18    1
    34     5     6    1
    35    25    26   ar
    36    33    28   ar
    37    26    21   ar
    38     6     2    1
    39    14     9   ar
    40    18    12    1
    41    15    19    1
@<TRIPOS>MOLECULE
*****
 37 41 0 0 0
SMALL
GASTEIGER

@<TRIPOS>ATOM
      1 C         138.4608  143.7446  163.1764 C.3     1  UNL1        0.0768
      2 N         138.2986  142.4577  162.4231 N.3     1  UNL1       -0.2724
      3 C         138.1728  142.3169  160.9350 C.3     1  UNL1        0.0721
      4 C         138.0302  140.8578  160.6179 C.3     1  UNL1        0.0187
      5 C         138.0680  140.0967  161.9100 C.3     1  UNL1        0.0178
      6 C         138.2339  141.0856  163.0256 C.3     1  UNL1        0.0721
      7 C         137.9590  138.6083  162.0600 C.3     1  UNL1        0.0077
      8 C         139.1808  137.7490  161.9218 C.3     1  UNL1        0.0459
      9 C         140.4431  138.1188  162.6426 C.ar    1  UNL1        0.0603
     10 C         140.7415  137.5230  163.9866 C.ar    1  UNL1        0.0145
     11 C         142.0039  137.8928  164.7073 C.ar    1  UNL1       -0.0003
     12 C         142.9680  138.8583  164.0842 C.ar    1  UNL1        0.0092
     13 C         142.6697  139.4540  162.7403 C.ar    1  UNL1        0.1240
     14 N         141.4073  139.0843  162.0195 N.ar    1  UNL1       -0.2356
     15 N         143.6338  140.4196  162.1172 N.pl3   1  UNL1       -0.3184
     16 C         144.8962  140.7893  162.8380 C.3     1  UNL1        0.0885
     17 C         145.1945  140.1936  164.1819 C.3     1  UNL1        0.0260
     18 C         144.2305  139.2281  164.8050 C.3     1  UNL1        0.0309
     19 H         143.4380  140.8106  161.2352 H       1  UNL1        0.1482
     20 C         139.8334  144.2680  163.4801 C.3     1  UNL1        0.0438
     21 C         140.9067  142.2698  166.7368 C.ar    1  UNL1        0.0167
     22 C         142.3948  142.2134  166.5572 C.ar    1  UNL1        0.0015
     23 C         143.0292  142.8418  165.3519 C.ar    1  UNL1       -0.0003
     24 C         142.1753  143.5267  164.3263 C.ar    1  UNL1       -0.0042
     25 C         140.6872  143.5831  164.5059 C.ar    1  UNL1       -0.0207
     26 C         140.0528  142.9546  165.7111 C.ar    1  UNL1       -0.0027
     27 C         140.8824  143.5070  169.7564 C.3     1  UNL1        0.0343
     28 C         140.2612  142.2100  169.3300 C.ar    1  UNL1        0.0163
     29 C         139.5197  141.2539  170.2167 C.ar    1  UNL1        0.1173
     30 N         139.0726  140.0944  169.3767 N.ar    1  UNL1       -0.1680
     31 N         139.5377  140.3338  167.9709 N.ar    1  UNL1       -0.2491
     32 C         139.3085  139.4252  166.7996 C.3     1  UNL1        0.1537
     33 C         140.2723  141.6413  167.9420 C.ar    1  UNL1        0.0754
     34 C         140.3521  145.4761  162.7582 C.3     1  UNL1        0.0474
     35 C         140.6968  145.3885  161.3010 C.2     1  UNL1        0.0507
     36 O         139.7293  145.8897  160.2699 O.co2   1  UNL1       -0.5492
     37 O         142.0090  144.7999  160.8748 O.co2   1  UNL1       -0.5492
@<TRIPOS>UNITY_ATOM_ATTR
36 1
charge -1
@<TRIPOS>BOND
     1    27    28    1
     2    28    29   ar
     3    29    30   ar
     4    30    31   ar
     5    31    32    1
     6    31    33   ar
     7    33    21    1
     8    21    22   ar
     9    22    23   ar
    10    23    24   ar
    11    24    25   ar
    12    25    20    1
    13    20    34    1
    14    34    35    1
    15    35    36   ar
    16    35    37   ar
    17    20     1    1
    18     1     2    1
    19     2     3    1
    20     3     4    1
    21     4     5    1
    22     5     7    1
    23     7     8    1
    24     8     9    1
    25     9    10   ar
    26    10    11   ar
    27    11    12   ar
    28    12    13   ar
    29    13    14   ar
    30    13    15    1
    31    15    16    1
    32    16    17    1
    33    17    18    1
    34     5     6    1
    35    25    26   ar
    36    33    28   ar
    37    26    21   ar
    38     6     2    1
    39    14     9   ar
    40    18    12    1
    41    15    19    1
@<TRIPOS>MOLECULE
*****
 37 41 0 0 0
SMALL
GASTEIGER

@<TRIPOS>ATOM
      1 C         141.3677  137.7407  164.5779 C.3     1  UNL1        0.0768
      2 N         142.5793  138.3923  163.9801 N.3     1  UNL1       -0.2724
      3 C         143.0937  138.1866  162.5862 C.3     1  UNL1        0.0721
      4 C         144.3216  139.0312  162.4158 C.3     1  UNL1        0.0187
      5 C         144.5661  139.7588  163.7046 C.3     1  UNL1        0.0178
      6 C         143.4893  139.3639  164.6713 C.3     1  UNL1        0.0721
      7 C         145.6900  140.7136  163.9784 C.3     1  UNL1        0.0077
      8 C         145.6782  142.0820  163.3641 C.3     1  UNL1        0.0459
      9 C         144.4067  142.8768  163.3274 C.ar    1  UNL1        0.0603
     10 C         143.6618  143.1591  164.5985 C.ar    1  UNL1        0.0145
     11 C         142.3902  143.9539  164.5618 C.ar    1  UNL1       -0.0003
     12 C         141.8635  144.4664  163.2542 C.ar    1  UNL1        0.0092
     13 C         142.6083  144.1840  161.9832 C.ar    1  UNL1        0.1240
     14 N         143.8799  143.3893  162.0198 N.ar    1  UNL1       -0.2356
     15 N         142.0815  144.6965  160.6755 N.pl3   1  UNL1       -0.3184
     16 C         140.8100  145.4912  160.6389 C.3     1  UNL1        0.0885
     17 C         140.0651  145.7736  161.9099 C.3     1  UNL1        0.0260
     18 C         140.5918  145.2611  163.2175 C.3     1  UNL1        0.0309
     19 H         142.5704  144.5112  159.8413 H       1  UNL1        0.1482
     20 C         140.0708  138.4910  164.6488 C.3     1  UNL1        0.0438
     21 C         140.3093  141.1793  167.5586 C.ar    1  UNL1        0.0167
     22 C         139.8590  142.4162  166.8394 C.ar    1  UNL1        0.0015
     23 C         139.4793  142.3448  165.3901 C.ar    1  UNL1       -0.0003
     24 C         139.5499  141.0364  164.6599 C.ar    1  UNL1       -0.0042
     25 C         140.0002  139.7995  165.3791 C.ar    1  UNL1       -0.0207
     26 C         140.3799  139.8709  166.8285 C.ar    1  UNL1       -0.0027
     27 C         143.1264  142.3175  168.7497 C.3     1  UNL1        0.0343
     28 C         141.9839  141.7739  169.5555 C.ar    1  UNL1        0.0163
     29 C         141.9357  141.6580  171.0502 C.ar    1  UNL1        0.1173
     30 N         140.6111  141.0632  171.4266 N.ar    1  UNL1       -0.1680
     31 N         139.8406  140.8115  170.1644 N.ar    1  UNL1       -0.2491
     32 C         138.4635  140.2237  170.0745 C.3     1  UNL1        0.1537
     33 C         140.6891  141.2507  169.0080 C.ar    1  UNL1        0.0754
     34 C         138.8445  137.9330  163.9895 C.3     1  UNL1        0.0474
     35 C         138.7075  137.9819  162.4966 C.2     1  UNL1        0.0507
     36 O         137.4122  138.4150  161.8761 O.co2   1  UNL1       -0.5492
     37 O         139.8656  137.5977  161.6242 O.co2   1  UNL1       -0.5492
@<TRIPOS>UNITY_ATOM_ATTR
36 1
charge -1
@<TRIPOS>BOND
     1    27    28    1
     2    28    29   ar
     3    29    30   ar
     4    30    31   ar
     5    31    32    1
     6    31    33   ar
     7    33    21    1
     8    21    22   ar
     9    22    23   ar
    10    23    24   ar
    11    24    25   ar
    12    25    20    1
    13    20    34    1
    14    34    35    1
    15    35    36   ar
    16    35    37   ar
    17    20     1    1
    18     1     2    1
    19     2     3    1
    20     3     4    1
    21     4     5    1
    22     5     7    1
    23     7     8    1
    24     8     9    1
    25     9    10   ar
    26    10    11   ar
    27    11    12   ar
    28    12    13   ar
    29    13    14   ar
    30    13    15    1
    31    15    16    1
    32    16    17    1
    33    17    18    1
    34     5     6    1
    35    25    26   ar
    36    33    28   ar
    37    26    21   ar
    38     6     2    1
    39    14     9   ar
    40    18    12    1
    41    15    19    1
@<TRIPOS>MOLECULE
*****
 37 41 0 0 0
SMALL
GASTEIGER

@<TRIPOS>ATOM
      1 C         138.0480  139.9933  165.0928 C.3     1  UNL1        0.0768
      2 N         138.0887  141.2124  164.2199 N.3     1  UNL1       -0.2724
      3 C         137.5319  141.3217  162.8314 C.3     1  UNL1        0.0721
      4 C         137.7925  142.7132  162.3356 C.3     1  UNL1        0.0187
      5 C         138.5103  143.4640  163.4178 C.3     1  UNL1        0.0178
      6 C         138.6934  142.5365  164.5824 C.3     1  UNL1        0.0721
      7 C         138.9652  144.8916  163.3477 C.3     1  UNL1        0.0077
      8 C         140.2527  145.2356  162.6591 C.3     1  UNL1        0.0459
      9 C         141.5147  144.5113  163.0230 C.ar    1  UNL1        0.0603
     10 C         142.5774  145.2094  163.8189 C.ar    1  UNL1        0.0145
     11 C         143.8395  144.4850  164.1828 C.ar    1  UNL1       -0.0003
     12 C         144.0389  143.0625  163.7508 C.ar    1  UNL1        0.0092
     13 C         142.9762  142.3644  162.9549 C.ar    1  UNL1        0.1240
     14 N         141.7142  143.0887  162.5910 N.ar    1  UNL1       -0.2356
     15 N         143.1757  140.9418  162.5230 N.pl3   1  UNL1       -0.3184
     16 C         144.4377  140.2174  162.8868 C.3     1  UNL1        0.0885
     17 C         145.5004  140.9155  163.6827 C.3     1  UNL1        0.0260
     18 C         145.3009  142.3380  164.1147 C.3     1  UNL1        0.0309
     19 H         142.4783  140.4835  162.0006 H       1  UNL1        0.1482
     20 C         139.0606  138.9026  164.9055 C.3     1  UNL1        0.0438
     21 C         141.9135  140.0106  167.4320 C.ar    1  UNL1        0.0167
     22 C         143.0589  139.1685  166.9533 C.ar    1  UNL1        0.0015
     23 C         142.8714  138.2378  165.7919 C.ar    1  UNL1       -0.0003
     24 C         141.5387  138.1492  165.1094 C.ar    1  UNL1       -0.0042
     25 C         140.3934  138.9913  165.5881 C.ar    1  UNL1       -0.0207
     26 C         140.5808  139.9220  166.7495 C.ar    1  UNL1       -0.0027
     27 C         143.6821  142.7532  167.4263 C.3     1  UNL1        0.0343
     28 C         142.9139  142.2018  168.5908 C.ar    1  UNL1        0.0163
     29 C         142.8237  142.8144  169.9570 C.ar    1  UNL1        0.1173
     30 N         141.9550  141.9324  170.8040 N.ar    1  UNL1       -0.1680
     31 N         141.5084  140.7747  169.9613 N.ar    1  UNL1       -0.2491
     32 C         140.6243  139.6482  170.4080 C.3     1  UNL1        0.1537
     33 C         142.1010  140.9412  168.5934 C.ar    1  UNL1        0.0754
     34 C         138.7404  137.7234  164.0356 C.3     1  UNL1        0.0474
     35 C         138.8654  137.8350  162.5449 C.2     1  UNL1        0.0507
     36 O         140.2006  137.6455  161.8880 O.co2   1  UNL1       -0.5492
     37 O         137.6554  138.1363  161.7113 O.co2   1  UNL1       -0.5492
@<TRIPOS>UNITY_ATOM_ATTR
36 1
charge -1
@<TRIPOS>BOND
     1    27    28    1
     2    28    29   ar
     3    29    30   ar
     4    30    31   ar
     5    31    32    1
     6    31    33   ar
     7    33    21    1
     8    21    22   ar
     9    22    23   ar
    10    23    24   ar
    11    24    25   ar
    12    25    20    1
    13    20    34    1
    14    34    35    1
    15    35    36   ar
    16    35    37   ar
    17    20     1    1
    18     1     2    1
    19     2     3    1
    20     3     4    1
    21     4     5    1
    22     5     7    1
    23     7     8    1
    24     8     9    1
    25     9    10   ar
    26    10    11   ar
    27    11    12   ar
    28    12    13   ar
    29    13    14   ar
    30    13    15    1
    31    15    16    1
    32    16    17    1
    33    17    18    1
    34     5     6    1
    35    25    26   ar
    36    33    28   ar
    37    26    21   ar
    38     6     2    1
    39    14     9   ar
    40    18    12    1
    41    15    19    1
@<TRIPOS>MOLECULE
*****
 37 41 0 0 0
SMALL
GASTEIGER

@<TRIPOS>ATOM
      1 C         140.1767  144.2703  165.0111 C.3     1  UNL1        0.0768
      2 N         141.4836  144.1355  164.2876 N.3     1  UNL1       -0.2724
      3 C         142.2139  145.2343  163.5740 C.3     1  UNL1        0.0721
      4 C         143.4715  144.6560  162.9960 C.3     1  UNL1        0.0187
      5 C         143.5185  143.1997  163.3524 C.3     1  UNL1        0.0178
      6 C         142.2899  142.8780  164.1507 C.3     1  UNL1        0.0721
      7 C         144.6034  142.2346  162.9766 C.3     1  UNL1        0.0077
      8 C         144.3233  141.1368  161.9934 C.3     1  UNL1        0.0459
      9 C         143.1188  140.2608  162.1704 C.ar    1  UNL1        0.0603
     10 C         143.2263  138.9875  162.9562 C.ar    1  UNL1        0.0145
     11 C         142.0216  138.1115  163.1332 C.ar    1  UNL1       -0.0003
     12 C         140.7095  138.5086  162.5245 C.ar    1  UNL1        0.0092
     13 C         140.6020  139.7818  161.7388 C.ar    1  UNL1        0.1240
     14 N         141.8065  140.6579  161.5617 N.ar    1  UNL1       -0.2356
     15 N         139.2897  140.1789  161.1301 N.pl3   1  UNL1       -0.3184
     16 C         138.0852  139.3029  161.3071 C.3     1  UNL1        0.0885
     17 C         138.1927  138.0297  162.0928 C.3     1  UNL1        0.0260
     18 C         139.5048  137.6325  162.7015 C.3     1  UNL1        0.0309
     19 H         139.2192  141.0146  160.6144 H       1  UNL1        0.1482
     20 C         139.0541  143.3203  164.7152 C.3     1  UNL1        0.0438
     21 C         140.0210  140.2352  167.0168 C.ar    1  UNL1        0.0167
     22 C         139.0645  139.1952  166.5134 C.ar    1  UNL1        0.0015
     23 C         138.1045  139.5302  165.4106 C.ar    1  UNL1       -0.0003
     24 C         138.1011  140.9052  164.8112 C.ar    1  UNL1       -0.0042
     25 C         139.0576  141.9453  165.3146 C.ar    1  UNL1       -0.0207
     26 C         140.0176  141.6102  166.4174 C.ar    1  UNL1       -0.0027
     27 C         139.4403  140.5139  170.2160 C.3     1  UNL1        0.0343
     28 C         140.7141  140.0283  169.5901 C.ar    1  UNL1        0.0163
     29 C         141.9446  139.5855  170.3249 C.ar    1  UNL1        0.1173
     30 N         142.9720  139.1837  169.3085 N.ar    1  UNL1       -0.1680
     31 N         142.3765  139.3782  167.9456 N.ar    1  UNL1       -0.2491
     32 C         143.0569  139.0996  166.6381 C.3     1  UNL1        0.1537
     33 C         140.9810  139.9002  168.1196 C.ar    1  UNL1        0.0754
     34 C         137.9282  143.7454  163.8199 C.3     1  UNL1        0.0474
     35 C         138.1680  143.9340  162.3513 C.2     1  UNL1        0.0507
     36 O         138.8509  145.1744  161.8560 O.co2   1  UNL1       -0.5492
     37 O         137.7250  142.8822  161.3778 O.co2   1  UNL1       -0.5492
@<TRIPOS>UNITY_ATOM_ATTR
36 1
charge -1
@<TRIPOS>BOND
     1    27    28    1
     2    28    29   ar
     3    29    30   ar
     4    30    31   ar
     5    31    32    1
     6    31    33   ar
     7    33    21    1
     8    21    22   ar
     9    22    23   ar
    10    23    24   ar
    11    24    25   ar
    12    25    20    1
    13    20    34    1
    14    34    35    1
    15    35    36   ar
    16    35    37   ar
    17    20     1    1
    18     1     2    1
    19     2     3    1
    20     3     4    1
    21     4     5    1
    22     5     7    1
    23     7     8    1
    24     8     9    1
    25     9    10   ar
    26    10    11   ar
    27    11    12   ar
    28    12    13   ar
    29    13    14   ar
    30    13    15    1
    31    15    16    1
    32    16    17    1
    33    17    18    1
    34     5     6    1
    35    25    26   ar
    36    33    28   ar
    37    26    21   ar
    38     6     2    1
    39    14     9   ar
    40    18    12    1
    41    15    19    1
@<TRIPOS>MOLECULE
*****
 37 41 0 0 0
SMALL
GASTEIGER

@<TRIPOS>ATOM
      1 C         143.8199  143.6793  164.4671 C.3     1  UNL1        0.0768
      2 N         142.5196  144.0983  163.8478 N.3     1  UNL1       -0.2724
      3 C         142.3590  144.8703  162.5718 C.3     1  UNL1        0.0721
      4 C         140.8917  145.0680  162.3312 C.3     1  UNL1        0.0187
      5 C         140.1454  144.4181  163.4585 C.3     1  UNL1        0.0178
      6 C         141.1516  143.8188  164.3958 C.3     1  UNL1        0.0721
      7 C         138.6548  144.3751  163.6201 C.3     1  UNL1        0.0077
      8 C         137.8960  143.1344  163.2527 C.3     1  UNL1        0.0459
      9 C         138.4527  141.7850  163.5975 C.ar    1  UNL1        0.0603
     10 C         137.9877  141.0756  164.8347 C.ar    1  UNL1        0.0145
     11 C         138.5444  139.7261  165.1795 C.ar    1  UNL1       -0.0003
     12 C         139.5662  139.0860  164.2872 C.ar    1  UNL1        0.0092
     13 C         140.0311  139.7954  163.0500 C.ar    1  UNL1        0.1240
     14 N         139.4745  141.1448  162.7051 N.ar    1  UNL1       -0.2356
     15 N         141.0529  139.1552  162.1577 N.pl3   1  UNL1       -0.3184
     16 C         141.6096  137.8058  162.5025 C.3     1  UNL1        0.0885
     17 C         141.1447  137.0964  163.7396 C.3     1  UNL1        0.0260
     18 C         140.1229  137.7365  164.6320 C.3     1  UNL1        0.0309
     19 H         141.3581  139.6207  161.3457 H       1  UNL1        0.1482
     20 C         144.2484  142.2428  164.4120 C.3     1  UNL1        0.0438
     21 C         142.5930  140.7805  167.7092 C.ar    1  UNL1        0.0167
     22 C         142.6739  139.3075  167.4378 C.ar    1  UNL1        0.0015
     23 C         143.2797  138.8129  166.1578 C.ar    1  UNL1       -0.0003
     24 C         143.8045  139.7914  165.1492 C.ar    1  UNL1       -0.0042
     25 C         143.7235  141.2644  165.4207 C.ar    1  UNL1       -0.0207
     26 C         143.1178  141.7590  166.7007 C.ar    1  UNL1       -0.0027
     27 C         139.5102  140.3203  168.6760 C.3     1  UNL1        0.0343
     28 C         140.5703  141.0636  169.4336 C.ar    1  UNL1        0.0163
     29 C         140.3994  141.7259  170.7686 C.ar    1  UNL1        0.1173
     30 N         141.7108  142.3467  171.1493 N.ar    1  UNL1       -0.1680
     31 N         142.6921  142.0681  170.0496 N.ar    1  UNL1       -0.2491
     32 C         144.1265  142.5057  170.0162 C.3     1  UNL1        0.1537
     33 C         141.9872  141.2751  168.9892 C.ar    1  UNL1        0.0754
     34 C         145.2017  141.7848  163.3483 C.3     1  UNL1        0.0474
     35 C         144.7156  141.5766  161.9446 C.2     1  UNL1        0.0507
     36 O         144.0249  140.2982  161.5720 O.co2   1  UNL1       -0.5492
     37 O         144.9200  142.6467  160.9136 O.co2   1  UNL1       -0.5492
@<TRIPOS>UNITY_ATOM_ATTR
36 1
charge -1
@<TRIPOS>BOND
     1    27    28    1
     2    28    29   ar
     3    29    30   ar
     4    30    31   ar
     5    31    32    1
     6    31    33   ar
     7    33    21    1
     8    21    22   ar
     9    22    23   ar
    10    23    24   ar
    11    24    25   ar
    12    25    20    1
    13    20    34    1
    14    34    35    1
    15    35    36   ar
    16    35    37   ar
    17    20     1    1
    18     1     2    1
    19     2     3    1
    20     3     4    1
    21     4     5    1
    22     5     7    1
    23     7     8    1
    24     8     9    1
    25     9    10   ar
    26    10    11   ar
    27    11    12   ar
    28    12    13   ar
    29    13    14   ar
    30    13    15    1
    31    15    16    1
    32    16    17    1
    33    17    18    1
    34     5     6    1
    35    25    26   ar
    36    33    28   ar
    37    26    21   ar
    38     6     2    1
    39    14     9   ar
    40    18    12    1
    41    15    19    1
@<TRIPOS>MOLECULE
*****
 37 41 0 0 0
SMALL
GASTEIGER

@<TRIPOS>ATOM
      1 C         137.8525  141.3043  164.7445 C.3     1  UNL1        0.0768
      2 N         138.3018  140.0863  163.9933 N.3     1  UNL1       -0.2724
      3 C         138.5775  138.7364  164.5864 C.3     1  UNL1        0.0721
      4 C         139.0005  137.8201  163.4767 C.3     1  UNL1        0.0187
      5 C         138.9861  138.6036  162.1976 C.3     1  UNL1        0.0178
      6 C         138.5543  140.0042  162.5170 C.3     1  UNL1        0.0721
      7 C         139.3412  138.0788  160.8381 C.3     1  UNL1        0.0077
      8 C         140.6974  138.3533  160.2588 C.3     1  UNL1        0.0459
      9 C         141.8012  138.8580  161.1400 C.ar    1  UNL1        0.0603
     10 C         142.3572  137.9810  162.2226 C.ar    1  UNL1        0.0145
     11 C         143.4611  138.4858  163.1038 C.ar    1  UNL1       -0.0003
     12 C         144.0090  139.8676  162.9026 C.ar    1  UNL1        0.0092
     13 C         143.4530  140.7445  161.8202 C.ar    1  UNL1        0.1240
     14 N         142.3492  140.2399  160.9389 N.ar    1  UNL1       -0.2356
     15 N         144.0010  142.1264  161.6190 N.pl3   1  UNL1       -0.3184
     16 C         145.1048  142.6311  162.5002 C.3     1  UNL1        0.0885
     17 C         145.6608  141.7541  163.5827 C.3     1  UNL1        0.0260
     18 C         145.1129  140.3724  163.7839 C.3     1  UNL1        0.0309
     19 H         143.6361  142.7020  160.9085 H       1  UNL1        0.1482
     20 C         138.6658  142.5634  164.6869 C.3     1  UNL1        0.0438
     21 C         141.9041  141.7962  166.8491 C.ar    1  UNL1        0.0167
     22 C         142.9477  142.5412  166.0708 C.ar    1  UNL1        0.0015
     23 C         142.5640  143.2937  164.8312 C.ar    1  UNL1       -0.0003
     24 C         141.1367  143.3011  164.3699 C.ar    1  UNL1       -0.0042
     25 C         140.0931  142.5560  165.1483 C.ar    1  UNL1       -0.0207
     26 C         140.4768  141.8035  166.3878 C.ar    1  UNL1       -0.0027
     27 C         141.7403  142.9255  169.9065 C.3     1  UNL1        0.0343
     28 C         142.2125  141.5628  169.4940 C.ar    1  UNL1        0.0163
     29 C         142.6923  140.4799  170.4145 C.ar    1  UNL1        0.1173
     30 N         143.0641  139.2916  169.5780 N.ar    1  UNL1       -0.1680
     31 N         142.8142  139.6400  168.1406 N.ar    1  UNL1       -0.2491
     32 C         143.0492  138.7424  166.9621 C.3     1  UNL1        0.1537
     33 C         142.2878  141.0437  168.0887 C.ar    1  UNL1        0.0754
     34 C         138.0518  143.8298  164.1681 C.3     1  UNL1        0.0474
     35 C         138.0982  144.1396  162.7011 C.2     1  UNL1        0.0507
     36 O         138.6615  145.4470  162.2281 O.co2   1  UNL1       -0.5492
     37 O         137.5813  143.1421  161.7072 O.co2   1  UNL1       -0.5492
@<TRIPOS>UNITY_ATOM_ATTR
36 1
charge -1
@<TRIPOS>BOND
     1    27    28    1
     2    28    29   ar
     3    29    30   ar
     4    30    31   ar
     5    31    32    1
     6    31    33   ar
     7    33    21    1
     8    21    22   ar
     9    22    23   ar
    10    23    24   ar
    11    24    25   ar
    12    25    20    1
    13    20    34    1
    14    34    35    1
    15    35    36   ar
    16    35    37   ar
    17    20     1    1
    18     1     2    1
    19     2     3    1
    20     3     4    1
    21     4     5    1
    22     5     7    1
    23     7     8    1
    24     8     9    1
    25     9    10   ar
    26    10    11   ar
    27    11    12   ar
    28    12    13   ar
    29    13    14   ar
    30    13    15    1
    31    15    16    1
    32    16    17    1
    33    17    18    1
    34     5     6    1
    35    25    26   ar
    36    33    28   ar
    37    26    21   ar
    38     6     2    1
    39    14     9   ar
    40    18    12    1
    41    15    19    1
@<TRIPOS>MOLECULE
*****
 37 41 0 0 0
SMALL
GASTEIGER

@<TRIPOS>ATOM
      1 C         142.6636  138.1574  164.1973 C.3     1  UNL1        0.0768
      2 N         141.6159  138.1815  163.1242 N.3     1  UNL1       -0.2724
      3 C         141.8678  138.1658  161.6456 C.3     1  UNL1        0.0721
      4 C         140.5399  138.2001  160.9487 C.3     1  UNL1        0.0187
      5 C         139.4673  138.2369  161.9967 C.3     1  UNL1        0.0178
      6 C         140.1323  138.2254  163.3412 C.3     1  UNL1        0.0721
      7 C         137.9893  138.2781  161.7445 C.3     1  UNL1        0.0077
      8 C         137.3638  139.5048  161.1494 C.3     1  UNL1        0.0459
      9 C         137.7713  140.8646  161.6336 C.ar    1  UNL1        0.0603
     10 C         137.4286  141.2981  163.0282 C.ar    1  UNL1        0.0145
     11 C         137.8362  142.6580  163.5124 C.ar    1  UNL1       -0.0003
     12 C         138.5866  143.5845  162.6021 C.ar    1  UNL1        0.0092
     13 C         138.9293  143.1510  161.2076 C.ar    1  UNL1        0.1240
     14 N         138.5217  141.7912  160.7234 N.ar    1  UNL1       -0.2356
     15 N         139.6796  144.0776  160.2973 N.pl3   1  UNL1       -0.3184
     16 C         140.0872  145.4374  160.7815 C.3     1  UNL1        0.0885
     17 C         139.7445  145.8709  162.1760 C.3     1  UNL1        0.0260
     18 C         138.9942  144.9444  163.0863 C.3     1  UNL1        0.0309
     19 H         139.9046  143.7931  159.3821 H       1  UNL1        0.1482
     20 C         143.3219  139.4334  164.6315 C.3     1  UNL1        0.0438
     21 C         141.6142  141.4234  167.6104 C.ar    1  UNL1        0.0167
     22 C         140.9526  142.5421  166.8615 C.ar    1  UNL1        0.0015
     23 C         141.0808  142.6246  165.3692 C.ar    1  UNL1       -0.0003
     24 C         141.8705  141.5883  164.6259 C.ar    1  UNL1       -0.0042
     25 C         142.5321  140.4697  165.3749 C.ar    1  UNL1       -0.0207
     26 C         142.4039  140.3872  166.8671 C.ar    1  UNL1       -0.0027
     27 C         139.0591  140.2306  169.2532 C.3     1  UNL1        0.0343
     28 C         140.3116  140.7927  169.8577 C.ar    1  UNL1        0.0163
     29 C         140.6096  140.9052  171.3235 C.ar    1  UNL1        0.1173
     30 N         141.9681  141.5229  171.4744 N.ar    1  UNL1       -0.1680
     31 N         142.5098  141.7923  170.1018 N.ar    1  UNL1       -0.2491
     32 C         143.8414  142.4053  169.7841 C.3     1  UNL1        0.1537
     33 C         141.4860  141.3409  169.1026 C.ar    1  UNL1        0.0754
     34 C         144.7700  139.6732  164.3222 C.3     1  UNL1        0.0474
     35 C         145.1738  140.8549  163.4913 C.2     1  UNL1        0.0507
     36 O         145.7215  142.0848  164.1527 O.co2   1  UNL1       -0.5492
     37 O         145.0298  140.8068  161.9990 O.co2   1  UNL1       -0.5492
@<TRIPOS>UNITY_ATOM_ATTR
36 1
charge -1
@<TRIPOS>BOND
     1    27    28    1
     2    28    29   ar
     3    29    30   ar
     4    30    31   ar
     5    31    32    1
     6    31    33   ar
     7    33    21    1
     8    21    22   ar
     9    22    23   ar
    10    23    24   ar
    11    24    25   ar
    12    25    20    1
    13    20    34    1
    14    34    35    1
    15    35    36   ar
    16    35    37   ar
    17    20     1    1
    18     1     2    1
    19     2     3    1
    20     3     4    1
    21     4     5    1
    22     5     7    1
    23     7     8    1
    24     8     9    1
    25     9    10   ar
    26    10    11   ar
    27    11    12   ar
    28    12    13   ar
    29    13    14   ar
    30    13    15    1
    31    15    16    1
    32    16    17    1
    33    17    18    1
    34     5     6    1
    35    25    26   ar
    36    33    28   ar
    37    26    21   ar
    38     6     2    1
    39    14     9   ar
    40    18    12    1
    41    15    19    1
@<TRIPOS>MOLECULE
*****
 37 41 0 0 0
SMALL
GASTEIGER

@<TRIPOS>ATOM
      1 C         137.5906  142.8895  162.7612 C.3     1  UNL1        0.0768
      2 N         138.2266  142.2086  161.5857 N.3     1  UNL1       -0.2724
      3 C         138.9630  142.8848  160.4674 C.3     1  UNL1        0.0721
      4 C         139.4294  141.8261  159.5126 C.3     1  UNL1        0.0187
      5 C         138.9812  140.4955  160.0407 C.3     1  UNL1        0.0178
      6 C         138.2378  140.7320  161.3220 C.3     1  UNL1        0.0721
      7 C         139.2322  139.1627  159.4002 C.3     1  UNL1        0.0077
      8 C         140.4954  138.4119  159.7012 C.3     1  UNL1        0.0459
      9 C         141.0258  138.3681  161.1035 C.ar    1  UNL1        0.0603
     10 C         140.1681  137.8367  162.2136 C.ar    1  UNL1        0.0145
     11 C         140.6985  137.7930  163.6160 C.ar    1  UNL1       -0.0003
     12 C         142.0866  138.2805  163.9084 C.ar    1  UNL1        0.0092
     13 C         142.9443  138.8118  162.7984 C.ar    1  UNL1        0.1240
     14 N         142.4140  138.8556  161.3960 N.ar    1  UNL1       -0.2356
     15 N         144.3324  139.2994  163.0909 N.pl3   1  UNL1       -0.3184
     16 C         144.8628  139.2556  164.4932 C.3     1  UNL1        0.0885
     17 C         144.0051  138.7243  165.6032 C.3     1  UNL1        0.0260
     18 C         142.6171  138.2367  165.3108 C.3     1  UNL1        0.0309
     19 H         144.8953  139.6481  162.3624 H       1  UNL1        0.1482
     20 C         138.4343  143.3237  163.9230 C.3     1  UNL1        0.0438
     21 C         140.3778  141.6869  166.9715 C.ar    1  UNL1        0.0167
     22 C         139.8011  140.3022  166.9648 C.ar    1  UNL1        0.0015
     23 C         138.7687  139.9247  165.9442 C.ar    1  UNL1       -0.0003
     24 C         138.3131  140.9319  164.9302 C.ar    1  UNL1       -0.0042
     25 C         138.8899  142.3166  164.9370 C.ar    1  UNL1       -0.0207
     26 C         139.9222  142.6941  165.9576 C.ar    1  UNL1       -0.0027
     27 C         139.8684  142.0388  170.1757 C.3     1  UNL1        0.0343
     28 C         141.1761  142.2262  169.4649 C.ar    1  UNL1        0.0163
     29 C         142.4791  142.6082  170.1022 C.ar    1  UNL1        0.1173
     30 N         143.5186  142.6825  169.0233 N.ar    1  UNL1       -0.1680
     31 N         142.8580  142.3465  167.7192 N.ar    1  UNL1       -0.2491
     32 C         143.5276  142.3005  166.3778 C.3     1  UNL1        0.1537
     33 C         141.4102  142.0644  167.9921 C.ar    1  UNL1        0.0754
     34 C         138.8222  144.7651  164.0708 C.3     1  UNL1        0.0474
     35 C         139.9146  145.3391  163.2179 C.2     1  UNL1        0.0507
     36 O         139.5723  146.0824  161.9608 O.co2   1  UNL1       -0.5492
     37 O         141.3491  145.1697  163.6222 O.co2   1  UNL1       -0.5492
@<TRIPOS>UNITY_ATOM_ATTR
36 1
charge -1
@<TRIPOS>BOND
     1    27    28    1
     2    28    29   ar
     3    29    30   ar
     4    30    31   ar
     5    31    32    1
     6    31    33   ar
     7    33    21    1
     8    21    22   ar
     9    22    23   ar
    10    23    24   ar
    11    24    25   ar
    12    25    20    1
    13    20    34    1
    14    34    35    1
    15    35    36   ar
    16    35    37   ar
    17    20     1    1
    18     1     2    1
    19     2     3    1
    20     3     4    1
    21     4     5    1
    22     5     7    1
    23     7     8    1
    24     8     9    1
    25     9    10   ar
    26    10    11   ar
    27    11    12   ar
    28    12    13   ar
    29    13    14   ar
    30    13    15    1
    31    15    16    1
    32    16    17    1
    33    17    18    1
    34     5     6    1
    35    25    26   ar
    36    33    28   ar
    37    26    21   ar
    38     6     2    1
    39    14     9   ar
    40    18    12    1
    41    15    19    1
