@<TRIPOS>MOLECULE
*****
 30 33 0 0 0
SMALL
GASTEIGER

@<TRIPOS>ATOM
      1 C         140.3608  140.1246  160.5887 C.2     1  UNL1        0.0620
      2 C         141.7276  139.6954  160.1438 C.2     1  UNL1        0.0622
      3 C         141.8835  138.8327  158.9267 C.2     1  UNL1        0.2254
      4 N         143.0938  138.2572  158.2527 N.2     1  UNL1       -0.0319
      5 C         142.6310  137.4682  157.0639 C.2     1  UNL1        0.4061
      6 N         141.1348  137.5560  157.0031 N.2     1  UNL1       -0.0486
      7 C         140.6728  138.3993  158.1544 C.3     1  UNL1        0.3025
      8 C         139.3062  138.8286  158.5993 C.2     1  UNL1        0.0474
      9 C         139.1502  139.6912  159.8164 C.2     1  UNL1        0.0714
     10 CL        137.7834  140.1205  160.2613 Cl      1  UNL1       -0.0811
     11 N         139.8928  142.7126  164.2402 N.3     1  UNL1       -0.2698
     12 C         139.8976  141.2187  164.3753 C.3     1  UNL1        0.0938
     13 C         140.0536  140.3561  163.1582 C.3     1  UNL1        0.1081
     14 N         140.2048  140.9873  161.8059 N.pl3   1  UNL1       -0.3039
     15 C         140.2000  142.4812  161.6708 C.3     1  UNL1        0.1081
     16 C         140.0440  143.3439  162.8879 C.3     1  UNL1        0.0938
     17 C         138.8162  144.7591  165.4245 C.3     1  UNL1        0.0188
     18 C         139.7368  143.5753  165.4573 C.3     1  UNL1        0.0722
     19 C         143.5101  136.7223  156.1043 C.2     1  UNL1        0.2592
     20 O         144.8402  137.2914  155.7081 O.2     1  UNL1       -0.2832
     21 C         143.0592  135.4073  155.5410 C.3     1  UNL1        0.0634
     22 C         142.8638  136.2855  154.3408 C.3     1  UNL1        0.0080
     23 C         143.4112  134.9857  156.9369 C.3     1  UNL1        0.0099
     24 C         143.2444  133.5542  157.3526 C.3     1  UNL1        0.0273
     25 C         142.7255  132.5441  156.3724 C.3     1  UNL1        0.0884
     26 C         142.2746  131.2291  155.8091 C.3     1  UNL1        0.0293
     27 O         142.9209  131.6659  157.5726 O.3     1  UNL1       -0.3867
     28 C         142.3736  132.9657  154.9766 C.3     1  UNL1        0.0273
     29 C         142.5404  134.3973  154.5609 C.3     1  UNL1        0.0099
     30 H         143.2632  132.1963  158.3091 H       1  UNL1        0.2102
@<TRIPOS>BOND
     1    17    18    1
     2    18    11    1
     3    11    12    1
     4    12    13    1
     5    13    14    1
     6    14     1    1
     7     1     2    2
     8     2     3    1
     9     3     4    2
    10     4     5    1
    11     5    19    1
    12    19    20    2
    13    19    21    1
    14    21    22    1
    15    21    23    1
    16    23    24    1
    17    24    25    1
    18    25    26    1
    19    25    27    1
    20    25    28    1
    21    28    29    1
    22     5     6    2
    23     6     7    1
    24     7     8    1
    25     8     9    2
    26     9    10    1
    27    14    15    1
    28    15    16    1
    29    16    11    1
    30     9     1    1
    31     7     3    1
    32    29    21    1
    33    27    30    1
@<TRIPOS>MOLECULE
*****
 30 33 0 0 0
SMALL
GASTEIGER

@<TRIPOS>ATOM
      1 C         140.4734  139.2831  161.4138 C.2     1  UNL1        0.0620
      2 C         141.7519  138.6740  160.9193 C.2     1  UNL1        0.0622
      3 C         141.8716  138.2398  159.4885 C.2     1  UNL1        0.2254
      4 N         142.9974  137.6129  158.7207 N.2     1  UNL1       -0.0319
      5 C         142.5343  137.4004  157.3099 C.2     1  UNL1        0.4061
      6 N         141.1224  137.8959  157.2058 N.2     1  UNL1       -0.0486
      7 C         140.7127  138.4147  158.5523 C.3     1  UNL1        0.3025
      8 C         139.4343  139.0238  159.0468 C.2     1  UNL1        0.0474
      9 C         139.3147  139.4580  160.4776 C.2     1  UNL1        0.0714
     10 CL        138.0361  140.0671  160.9720 Cl      1  UNL1       -0.0811
     11 N         140.1144  140.5857  165.7062 N.3     1  UNL1       -0.2698
     12 C         140.7301  141.5042  164.6927 C.3     1  UNL1        0.0938
     13 C         140.8498  141.0700  163.2620 C.3     1  UNL1        0.1081
     14 N         140.3537  139.7173  162.8447 N.pl3   1  UNL1       -0.3039
     15 C         139.7379  138.7988  163.8582 C.3     1  UNL1        0.1081
     16 C         139.6183  139.2330  165.2889 C.3     1  UNL1        0.0938
     17 C         139.5131  140.0517  168.1767 C.3     1  UNL1        0.0188
     18 C         139.9947  141.0198  167.1370 C.3     1  UNL1        0.0722
     19 C         143.3415  136.7981  156.1983 C.2     1  UNL1        0.2592
     20 O         144.5768  137.4927  155.7069 O.2     1  UNL1       -0.2832
     21 C         142.9134  135.5011  155.5782 C.3     1  UNL1        0.0634
     22 C         142.7080  136.4261  154.4154 C.3     1  UNL1        0.0080
     23 C         143.2675  135.0265  156.9564 C.3     1  UNL1        0.0099
     24 C         143.1222  133.5762  157.3106 C.3     1  UNL1        0.0273
     25 C         142.6228  132.6004  156.2866 C.3     1  UNL1        0.0884
     26 C         142.1947  131.3035  155.6664 C.3     1  UNL1        0.0293
     27 O         142.8282  131.6754  157.4494 O.3     1  UNL1       -0.3867
     28 C         142.2687  133.0751  154.9085 C.3     1  UNL1        0.0273
     29 C         142.4140  134.5254  154.5542 C.3     1  UNL1        0.0099
     30 H         143.1595  132.1795  158.2090 H       1  UNL1        0.2102
@<TRIPOS>BOND
     1    17    18    1
     2    18    11    1
     3    11    12    1
     4    12    13    1
     5    13    14    1
     6    14     1    1
     7     1     2    2
     8     2     3    1
     9     3     4    2
    10     4     5    1
    11     5    19    1
    12    19    20    2
    13    19    21    1
    14    21    22    1
    15    21    23    1
    16    23    24    1
    17    24    25    1
    18    25    26    1
    19    25    27    1
    20    25    28    1
    21    28    29    1
    22     5     6    2
    23     6     7    1
    24     7     8    1
    25     8     9    2
    26     9    10    1
    27    14    15    1
    28    15    16    1
    29    16    11    1
    30     9     1    1
    31     7     3    1
    32    29    21    1
    33    27    30    1
@<TRIPOS>MOLECULE
*****
 30 33 0 0 0
SMALL
GASTEIGER

@<TRIPOS>ATOM
      1 C         140.3523  143.8690  160.8054 C.2     1  UNL1        0.0620
      2 C         140.6418  142.4328  161.1274 C.2     1  UNL1        0.0622
      3 C         140.5155  141.9404  162.5386 C.2     1  UNL1        0.2254
      4 N         140.7336  140.5898  163.1537 N.2     1  UNL1       -0.0319
      5 C         140.4525  140.6988  164.6230 C.2     1  UNL1        0.4061
      6 N         140.0607  142.1168  164.9161 N.2     1  UNL1       -0.0486
      7 C         140.0996  142.8841  163.6278 C.3     1  UNL1        0.3025
      8 C         139.8101  144.3203  163.3058 C.2     1  UNL1        0.0474
      9 C         139.9365  144.8127  161.8946 C.2     1  UNL1        0.0714
     10 CL        139.6469  146.2489  161.5727 Cl      1  UNL1       -0.0811
     11 N         140.7315  145.3463  156.5717 N.3     1  UNL1       -0.2698
     12 C         141.6746  145.8435  157.6268 C.3     1  UNL1        0.0938
     13 C         141.5482  145.3511  159.0380 C.3     1  UNL1        0.1081
     14 N         140.4787  144.3614  159.3941 N.pl3   1  UNL1       -0.3039
     15 C         139.5356  143.8642  158.3390 C.3     1  UNL1        0.1081
     16 C         139.6620  144.3566  156.9278 C.3     1  UNL1        0.0938
     17 C         140.1455  147.0886  154.7356 C.3     1  UNL1        0.0188
     18 C         140.8578  145.8386  155.1605 C.3     1  UNL1        0.0722
     19 C         140.5467  139.5854  165.6237 C.2     1  UNL1        0.2592
     20 O         139.9705  138.2381  165.3031 O.2     1  UNL1       -0.2832
     21 C         141.2170  139.8192  166.9451 C.3     1  UNL1        0.0634
     22 C         142.4217  139.6278  166.0721 C.3     1  UNL1        0.0080
     23 C         139.7795  139.9294  167.3591 C.3     1  UNL1        0.0099
     24 C         139.4307  140.2070  168.7914 C.3     1  UNL1        0.0273
     25 C         140.5195  140.3743  169.8096 C.3     1  UNL1        0.0884
     26 C         141.1898  140.6082  171.1309 C.3     1  UNL1        0.0293
     27 O         139.3148  140.5657  170.6825 O.3     1  UNL1       -0.3867
     28 C         141.9569  140.2641  169.3954 C.3     1  UNL1        0.0273
     29 C         142.3057  139.9866  167.9632 C.3     1  UNL1        0.0099
     30 H         138.5106  140.4828  170.1465 H       1  UNL1        0.2102
@<TRIPOS>BOND
     1    17    18    1
     2    18    11    1
     3    11    12    1
     4    12    13    1
     5    13    14    1
     6    14     1    1
     7     1     2    2
     8     2     3    1
     9     3     4    2
    10     4     5    1
    11     5    19    1
    12    19    20    2
    13    19    21    1
    14    21    22    1
    15    21    23    1
    16    23    24    1
    17    24    25    1
    18    25    26    1
    19    25    27    1
    20    25    28    1
    21    28    29    1
    22     5     6    2
    23     6     7    1
    24     7     8    1
    25     8     9    2
    26     9    10    1
    27    14    15    1
    28    15    16    1
    29    16    11    1
    30     9     1    1
    31     7     3    1
    32    29    21    1
    33    27    30    1
@<TRIPOS>MOLECULE
*****
 30 33 0 0 0
SMALL
GASTEIGER

@<TRIPOS>ATOM
      1 C         141.9739  143.4483  160.7118 C.2     1  UNL1        0.0620
      2 C         141.3104  143.4813  162.0567 C.2     1  UNL1        0.0622
      3 C         142.0594  143.0259  163.2739 C.2     1  UNL1        0.2254
      4 N         141.6699  142.9449  164.7202 N.2     1  UNL1       -0.0319
      5 C         142.8417  142.4065  165.4863 C.2     1  UNL1        0.4061
      6 N         143.9554  142.1547  164.5136 N.2     1  UNL1       -0.0486
      7 C         143.4719  142.5375  163.1462 C.3     1  UNL1        0.3025
      8 C         144.1354  142.5046  161.8013 C.2     1  UNL1        0.0474
      9 C         143.3863  142.9600  160.5841 C.2     1  UNL1        0.0714
     10 CL        144.0499  142.9270  159.2392 Cl      1  UNL1       -0.0811
     11 N         139.7267  144.8145  157.0602 N.3     1  UNL1       -0.2698
     12 C         140.4714  145.8106  157.8989 C.3     1  UNL1        0.0938
     13 C         141.2204  145.3552  159.1161 C.3     1  UNL1        0.1081
     14 N         141.2248  143.9037  159.4946 N.pl3   1  UNL1       -0.3039
     15 C         140.4802  142.9077  158.6559 C.3     1  UNL1        0.1081
     16 C         139.7311  143.3631  157.4387 C.3     1  UNL1        0.0938
     17 C         138.9929  146.7177  155.4510 C.3     1  UNL1        0.0188
     18 C         138.9777  145.2698  155.8431 C.3     1  UNL1        0.0722
     19 C         142.8911  142.1626  166.9655 C.2     1  UNL1        0.2592
     20 O         143.9456  142.8268  167.8003 O.2     1  UNL1       -0.2832
     21 C         141.8861  141.2545  167.6099 C.3     1  UNL1        0.0634
     22 C         142.5358  140.2919  166.6606 C.3     1  UNL1        0.0080
     23 C         141.5854  142.5324  168.3355 C.3     1  UNL1        0.0099
     24 C         140.5053  142.5680  169.3758 C.3     1  UNL1        0.0273
     25 C         139.7259  141.3256  169.6905 C.3     1  UNL1        0.0884
     26 C         138.7209  140.4175  170.3349 C.3     1  UNL1        0.0293
     27 O         139.0761  142.2882  170.6398 O.3     1  UNL1       -0.3867
     28 C         140.0266  140.0477  168.9649 C.3     1  UNL1        0.0273
     29 C         141.1067  140.0121  167.9246 C.3     1  UNL1        0.0099
     30 H         139.4884  143.1613  170.5475 H       1  UNL1        0.2102
@<TRIPOS>BOND
     1    17    18    1
     2    18    11    1
     3    11    12    1
     4    12    13    1
     5    13    14    1
     6    14     1    1
     7     1     2    2
     8     2     3    1
     9     3     4    2
    10     4     5    1
    11     5    19    1
    12    19    20    2
    13    19    21    1
    14    21    22    1
    15    21    23    1
    16    23    24    1
    17    24    25    1
    18    25    26    1
    19    25    27    1
    20    25    28    1
    21    28    29    1
    22     5     6    2
    23     6     7    1
    24     7     8    1
    25     8     9    2
    26     9    10    1
    27    14    15    1
    28    15    16    1
    29    16    11    1
    30     9     1    1
    31     7     3    1
    32    29    21    1
    33    27    30    1
@<TRIPOS>MOLECULE
*****
 30 33 0 0 0
SMALL
GASTEIGER

@<TRIPOS>ATOM
      1 C         141.1533  139.2920  160.4891 C.2     1  UNL1        0.0620
      2 C         140.8819  138.5461  161.7619 C.2     1  UNL1        0.0622
      3 C         140.7922  139.2890  163.0619 C.2     1  UNL1        0.2254
      4 N         140.5377  138.8273  164.4662 N.2     1  UNL1       -0.0319
      5 C         140.5622  140.0307  165.3613 C.2     1  UNL1        0.4061
      6 N         140.8317  141.2361  164.5103 N.2     1  UNL1       -0.0486
      7 C         140.9739  140.7777  163.0891 C.3     1  UNL1        0.3025
      8 C         141.2453  141.5235  161.8163 C.2     1  UNL1        0.0474
      9 C         141.3350  140.7806  160.5163 C.2     1  UNL1        0.0714
     10 CL        141.6064  141.5265  159.2435 Cl      1  UNL1       -0.0811
     11 N         141.4225  137.0633  156.5890 N.3     1  UNL1       -0.2698
     12 C         142.6501  137.2554  157.4293 C.3     1  UNL1        0.0938
     13 C         142.5603  137.9983  158.7293 C.3     1  UNL1        0.1081
     14 N         141.2430  138.5491  159.1890 N.pl3   1  UNL1       -0.3039
     15 C         140.0154  138.3570  158.3487 C.3     1  UNL1        0.1081
     16 C         140.1052  137.6141  157.0487 C.3     1  UNL1        0.0938
     17 C         141.2228  134.8493  155.2443 C.3     1  UNL1        0.0188
     18 C         141.5121  136.3205  155.2889 C.3     1  UNL1        0.0722
     19 C         140.3537  140.0290  166.8468 C.2     1  UNL1        0.2592
     20 O         139.0724  139.5043  167.4237 O.2     1  UNL1       -0.2832
     21 C         141.4265  140.5520  167.7553 C.3     1  UNL1        0.0634
     22 C         142.1270  139.3529  167.1885 C.3     1  UNL1        0.0080
     23 C         140.3534  141.5696  168.0067 C.3     1  UNL1        0.0099
     24 C         140.5964  142.6937  168.9697 C.3     1  UNL1        0.0273
     25 C         141.9126  142.8002  169.6813 C.3     1  UNL1        0.0884
     26 C         142.9854  143.3233  170.5899 C.3     1  UNL1        0.0293
     27 O         141.2121  143.9994  170.2482 O.3     1  UNL1       -0.3867
     28 C         142.9856  141.7827  169.4300 C.3     1  UNL1        0.0273
     29 C         142.7426  140.6586  168.4670 C.3     1  UNL1        0.0099
     30 H         140.3216  144.0629  169.8688 H       1  UNL1        0.2102
@<TRIPOS>BOND
     1    17    18    1
     2    18    11    1
     3    11    12    1
     4    12    13    1
     5    13    14    1
     6    14     1    1
     7     1     2    2
     8     2     3    1
     9     3     4    2
    10     4     5    1
    11     5    19    1
    12    19    20    2
    13    19    21    1
    14    21    22    1
    15    21    23    1
    16    23    24    1
    17    24    25    1
    18    25    26    1
    19    25    27    1
    20    25    28    1
    21    28    29    1
    22     5     6    2
    23     6     7    1
    24     7     8    1
    25     8     9    2
    26     9    10    1
    27    14    15    1
    28    15    16    1
    29    16    11    1
    30     9     1    1
    31     7     3    1
    32    29    21    1
    33    27    30    1
@<TRIPOS>MOLECULE
*****
 30 33 0 0 0
SMALL
GASTEIGER

@<TRIPOS>ATOM
      1 C         139.7866  143.2677  158.4993 C.2     1  UNL1        0.0620
      2 C         138.9531  142.0237  158.5877 C.2     1  UNL1        0.0622
      3 C         137.9335  141.7273  157.5282 C.2     1  UNL1        0.2254
      4 N         136.9735  140.5886  157.3497 N.2     1  UNL1       -0.0319
      5 C         136.1940  140.8325  156.0916 C.2     1  UNL1        0.4061
      6 N         136.6722  142.1219  155.4925 N.2     1  UNL1       -0.0486
      7 C         137.7473  142.6749  156.3805 C.3     1  UNL1        0.3025
      8 C         138.5808  143.9189  156.2921 C.2     1  UNL1        0.0474
      9 C         139.6004  144.2153  157.3516 C.2     1  UNL1        0.0714
     10 CL        140.4338  145.4593  157.2632 Cl      1  UNL1       -0.0811
     11 N         142.8456  144.1569  161.6777 N.3     1  UNL1       -0.2698
     12 C         143.2003  143.2671  160.5235 C.3     1  UNL1        0.0938
     13 C         142.1806  142.9707  159.4640 C.3     1  UNL1        0.1081
     14 N         140.8063  143.5642  159.5588 N.pl3   1  UNL1       -0.3039
     15 C         140.4516  144.4540  160.7131 C.3     1  UNL1        0.1081
     16 C         141.4712  144.7504  161.7725 C.3     1  UNL1        0.0938
     17 C         143.4526  145.1456  164.0024 C.3     1  UNL1        0.0188
     18 C         143.8651  144.4534  162.7372 C.3     1  UNL1        0.0722
     19 C         135.1241  139.9432  155.5309 C.2     1  UNL1        0.2592
     20 O         135.4996  138.7076  154.7678 O.2     1  UNL1       -0.2832
     21 C         133.6787  140.2894  155.7332 C.3     1  UNL1        0.0634
     22 C         134.0266  141.2534  154.6379 C.3     1  UNL1        0.0080
     23 C         133.8329  139.2052  156.7583 C.3     1  UNL1        0.0099
     24 C         132.6624  138.8019  157.6054 C.3     1  UNL1        0.0273
     25 C         131.3378  139.4830  157.4273 C.3     1  UNL1        0.0884
     26 C         129.8924  139.8292  157.6297 C.3     1  UNL1        0.0293
     27 O         130.9900  138.5190  158.5226 O.3     1  UNL1       -0.3867
     28 C         131.1837  140.5672  156.4023 C.3     1  UNL1        0.0273
     29 C         132.3542  140.9704  155.5552 C.3     1  UNL1        0.0099
     30 H         131.7724  137.9933  158.7512 H       1  UNL1        0.2102
@<TRIPOS>BOND
     1    17    18    1
     2    18    11    1
     3    11    12    1
     4    12    13    1
     5    13    14    1
     6    14     1    1
     7     1     2    2
     8     2     3    1
     9     3     4    2
    10     4     5    1
    11     5    19    1
    12    19    20    2
    13    19    21    1
    14    21    22    1
    15    21    23    1
    16    23    24    1
    17    24    25    1
    18    25    26    1
    19    25    27    1
    20    25    28    1
    21    28    29    1
    22     5     6    2
    23     6     7    1
    24     7     8    1
    25     8     9    2
    26     9    10    1
    27    14    15    1
    28    15    16    1
    29    16    11    1
    30     9     1    1
    31     7     3    1
    32    29    21    1
    33    27    30    1
@<TRIPOS>MOLECULE
*****
 30 33 0 0 0
SMALL
GASTEIGER

@<TRIPOS>ATOM
      1 C         141.5501  139.3069  162.8128 C.2     1  UNL1        0.0620
      2 C         142.6860  138.9795  161.8894 C.2     1  UNL1        0.0622
      3 C         142.4071  138.5656  160.4749 C.2     1  UNL1        0.2254
      4 N         143.3148  138.1853  159.3429 N.2     1  UNL1       -0.0319
      5 C         142.4611  137.8637  158.1522 C.2     1  UNL1        0.4061
      6 N         141.0257  138.0452  158.5483 N.2     1  UNL1       -0.0486
      7 C         140.9924  138.4790  159.9838 C.3     1  UNL1        0.3025
      8 C         139.8566  138.8063  160.9073 C.2     1  UNL1        0.0474
      9 C         140.1355  139.2202  162.3218 C.2     1  UNL1        0.0714
     10 CL        138.9996  139.5476  163.2453 Cl      1  UNL1       -0.0811
     11 N         142.3868  140.5487  167.0564 N.3     1  UNL1       -0.2698
     12 C         142.0616  141.5851  166.0220 C.3     1  UNL1        0.0938
     13 C         141.7827  141.1711  164.6075 C.3     1  UNL1        0.1081
     14 N         141.8290  139.7208  164.2274 N.pl3   1  UNL1       -0.3039
     15 C         142.1542  138.6844  165.2619 C.3     1  UNL1        0.1081
     16 C         142.4331  139.0984  166.6764 C.3     1  UNL1        0.0938
     17 C         143.2071  142.3315  168.7590 C.3     1  UNL1        0.0188
     18 C         142.6657  140.9626  168.4710 C.3     1  UNL1        0.0722
     19 C         142.9558  137.4358  156.8023 C.2     1  UNL1        0.2592
     20 O         144.0158  138.2350  156.1040 O.2     1  UNL1       -0.2832
     21 C         142.3905  136.2086  156.1508 C.3     1  UNL1        0.0634
     22 C         141.7467  137.2703  155.3092 C.3     1  UNL1        0.0080
     23 C         143.2306  135.5730  157.2187 C.3     1  UNL1        0.0099
     24 C         143.2819  134.0791  157.3428 C.3     1  UNL1        0.0273
     25 C         142.4930  133.2206  156.3989 C.3     1  UNL1        0.0884
     26 C         141.9277  131.9934  155.7474 C.3     1  UNL1        0.0293
     27 O         143.1368  132.1589  157.2405 O.3     1  UNL1       -0.3867
     28 C         141.6529  133.8562  155.3311 C.3     1  UNL1        0.0273
     29 C         141.6017  135.3502  155.2070 C.3     1  UNL1        0.0099
     30 H         143.6947  132.5756  157.9157 H       1  UNL1        0.2102
@<TRIPOS>BOND
     1    17    18    1
     2    18    11    1
     3    11    12    1
     4    12    13    1
     5    13    14    1
     6    14     1    1
     7     1     2    2
     8     2     3    1
     9     3     4    2
    10     4     5    1
    11     5    19    1
    12    19    20    2
    13    19    21    1
    14    21    22    1
    15    21    23    1
    16    23    24    1
    17    24    25    1
    18    25    26    1
    19    25    27    1
    20    25    28    1
    21    28    29    1
    22     5     6    2
    23     6     7    1
    24     7     8    1
    25     8     9    2
    26     9    10    1
    27    14    15    1
    28    15    16    1
    29    16    11    1
    30     9     1    1
    31     7     3    1
    32    29    21    1
    33    27    30    1
@<TRIPOS>MOLECULE
*****
 30 33 0 0 0
SMALL
GASTEIGER

@<TRIPOS>ATOM
      1 C         142.2698  139.6104  160.5552 C.2     1  UNL1        0.0620
      2 C         143.1334  139.2828  161.7372 C.2     1  UNL1        0.0622
      3 C         142.6615  139.6070  163.1236 C.2     1  UNL1        0.2254
      4 N         143.2892  139.4038  164.4707 N.2     1  UNL1       -0.0319
      5 C         142.3416  139.9299  165.5077 C.2     1  UNL1        0.4061
      6 N         141.1283  140.4583  164.8015 N.2     1  UNL1       -0.0486
      7 C         141.3260  140.2587  163.3281 C.3     1  UNL1        0.3025
      8 C         140.4625  140.5862  162.1461 C.2     1  UNL1        0.0474
      9 C         140.9344  140.2620  160.7597 C.2     1  UNL1        0.0714
     10 CL        140.0708  140.5896  159.5777 Cl      1  UNL1       -0.0811
     11 N         143.6857  138.6379  156.3959 N.3     1  UNL1       -0.2698
     12 C         143.9911  139.9773  156.9981 C.3     1  UNL1        0.0938
     13 C         143.5192  140.3015  158.3845 C.3     1  UNL1        0.1081
     14 N         142.7418  139.2862  159.1687 N.pl3   1  UNL1       -0.3039
     15 C         142.4364  137.9468  158.5665 C.3     1  UNL1        0.1081
     16 C         142.9084  137.6226  157.1801 C.3     1  UNL1        0.0938
     17 C         143.2325  138.4898  153.8420 C.3     1  UNL1        0.0188
     18 C         144.1576  138.3137  155.0095 C.3     1  UNL1        0.0722
     19 C         142.5677  139.9280  166.9906 C.2     1  UNL1        0.2592
     20 O         143.2548  138.7651  167.6430 O.2     1  UNL1       -0.2832
     21 C         142.1066  141.0889  167.8210 C.3     1  UNL1        0.0634
     22 C         143.2538  141.7271  167.0953 C.3     1  UNL1        0.0080
     23 C         141.1196  140.0474  168.2584 C.3     1  UNL1        0.0099
     24 C         140.0699  140.3886  169.2742 C.3     1  UNL1        0.0273
     25 C         140.0072  141.7712  169.8526 C.3     1  UNL1        0.0884
     26 C         139.5462  142.9321  170.6830 C.3     1  UNL1        0.0293
     27 O         138.8601  141.1329  170.5783 O.3     1  UNL1       -0.3867
     28 C         140.9942  142.8125  169.4152 C.3     1  UNL1        0.0273
     29 C         142.0440  142.4714  168.3994 C.3     1  UNL1        0.0099
     30 H         138.7750  140.2081  170.2987 H       1  UNL1        0.2102
@<TRIPOS>BOND
     1    17    18    1
     2    18    11    1
     3    11    12    1
     4    12    13    1
     5    13    14    1
     6    14     1    1
     7     1     2    2
     8     2     3    1
     9     3     4    2
    10     4     5    1
    11     5    19    1
    12    19    20    2
    13    19    21    1
    14    21    22    1
    15    21    23    1
    16    23    24    1
    17    24    25    1
    18    25    26    1
    19    25    27    1
    20    25    28    1
    21    28    29    1
    22     5     6    2
    23     6     7    1
    24     7     8    1
    25     8     9    2
    26     9    10    1
    27    14    15    1
    28    15    16    1
    29    16    11    1
    30     9     1    1
    31     7     3    1
    32    29    21    1
    33    27    30    1
@<TRIPOS>MOLECULE
*****
 30 33 0 0 0
SMALL
GASTEIGER

@<TRIPOS>ATOM
      1 C         142.4435  143.5146  158.6539 C.2     1  UNL1        0.0620
      2 C         142.0045  142.6713  159.8142 C.2     1  UNL1        0.0622
      3 C         140.9171  143.1578  160.7257 C.2     1  UNL1        0.2254
      4 N         140.2793  142.5510  161.9402 N.2     1  UNL1       -0.0319
      5 C         139.2367  143.5056  162.4421 C.2     1  UNL1        0.4061
      6 N         139.2302  144.7023  161.5377 N.2     1  UNL1       -0.0486
      7 C         140.2688  144.4874  160.4770 C.3     1  UNL1        0.3025
      8 C         140.7078  145.3305  159.3167 C.2     1  UNL1        0.0474
      9 C         141.7952  144.8441  158.4051 C.2     1  UNL1        0.0714
     10 CL        142.2343  145.6873  157.2448 Cl      1  UNL1       -0.0811
     11 N         145.7058  142.0553  155.9191 N.3     1  UNL1       -0.2698
     12 C         144.3277  142.2989  155.3793 C.3     1  UNL1        0.0938
     13 C         143.2403  142.7853  156.2908 C.3     1  UNL1        0.1081
     14 N         143.5310  143.0281  157.7422 N.pl3   1  UNL1       -0.3039
     15 C         144.9091  142.7845  158.2821 C.3     1  UNL1        0.1081
     16 C         145.9965  142.2981  157.3705 C.3     1  UNL1        0.0938
     17 C         148.2314  141.7362  155.3999 C.3     1  UNL1        0.0188
     18 C         146.7932  141.5689  155.0076 C.3     1  UNL1        0.0722
     19 C         138.3554  143.2996  163.6382 C.2     1  UNL1        0.2592
     20 O         137.2767  144.2926  163.9549 O.2     1  UNL1       -0.2832
     21 C         138.5528  142.1006  164.5177 C.3     1  UNL1        0.0634
     22 C         137.5751  141.5396  163.5281 C.3     1  UNL1        0.0080
     23 C         139.4620  143.0781  165.2019 C.3     1  UNL1        0.0099
     24 C         140.2290  142.6617  166.4219 C.3     1  UNL1        0.0273
     25 C         140.0868  141.2679  166.9577 C.3     1  UNL1        0.0884
     26 C         140.2841  140.0689  167.8372 C.3     1  UNL1        0.0293
     27 O         141.0645  141.8289  167.9473 O.3     1  UNL1       -0.3867
     28 C         139.1776  140.2905  166.2735 C.3     1  UNL1        0.0273
     29 C         138.4106  140.7069  165.0535 C.3     1  UNL1        0.0099
     30 H         141.2581  142.7524  167.7226 H       1  UNL1        0.2102
@<TRIPOS>BOND
     1    17    18    1
     2    18    11    1
     3    11    12    1
     4    12    13    1
     5    13    14    1
     6    14     1    1
     7     1     2    2
     8     2     3    1
     9     3     4    2
    10     4     5    1
    11     5    19    1
    12    19    20    2
    13    19    21    1
    14    21    22    1
    15    21    23    1
    16    23    24    1
    17    24    25    1
    18    25    26    1
    19    25    27    1
    20    25    28    1
    21    28    29    1
    22     5     6    2
    23     6     7    1
    24     7     8    1
    25     8     9    2
    26     9    10    1
    27    14    15    1
    28    15    16    1
    29    16    11    1
    30     9     1    1
    31     7     3    1
    32    29    21    1
    33    27    30    1
