@<TRIPOS>MOLECULE
*****
 31 35 0 0 0
SMALL
GASTEIGER

@<TRIPOS>ATOM
      1 C         140.8028  145.3292  163.3465 C.3     1  UNL1        0.0294
      2 C         140.4286  145.7367  161.9522 C.3     1  UNL1        0.0666
      3 S         140.1489  144.6903  160.9146 S.3     1  UNL1       -0.0756
      4 C         140.2266  140.9639  161.9982 C.ar    1  UNL1        0.1740
      5 N         141.5538  141.0939  161.3115 N.ar    1  UNL1       -0.1277
      6 N         141.6863  142.5056  160.8220 N.ar    1  UNL1       -0.1221
      7 C         140.4409  143.2482  161.2062 C.ar    1  UNL1        0.1932
      8 N         139.5387  142.2954  161.9331 N.ar    1  UNL1       -0.2880
      9 C         138.1862  142.6175  162.4960 C.3     1  UNL1        0.1340
     10 C         138.5677  137.4884  165.6105 C.3     1  UNL1        0.0594
     11 C         138.9202  138.1233  164.2981 C.ar    1  UNL1        0.0883
     12 N         138.7712  137.4926  162.9453 N.ar    1  UNL1       -0.2469
     13 C         139.2425  138.4799  161.9191 C.ar    1  UNL1        0.0685
     14 C         139.2689  138.2643  160.4349 C.3     1  UNL1        0.0527
     15 C         139.6827  139.7209  162.6377 C.ar    1  UNL1        0.0799
     16 S         139.4835  139.5005  164.1080 S.2     1  UNL1       -0.0680
     17 C         142.2386  145.3663  163.7790 C.3     1  UNL1        0.0730
     18 N         143.1034  144.1519  163.6134 N.3     1  UNL1       -0.2724
     19 C         144.2352  144.0015  162.6407 C.3     1  UNL1        0.0725
     20 C         144.8195  142.6313  162.8177 C.3     1  UNL1        0.0227
     21 C         144.0487  141.9350  163.8998 C.3     1  UNL1        0.0350
     22 C         145.1093  140.9952  163.4080 C.3     1  UNL1        0.0101
     23 C         144.9940  139.7180  164.1862 C.3     1  UNL1        0.0264
     24 C         143.8622  139.8685  165.1589 C.ar    1  UNL1       -0.0260
     25 C         143.2881  138.9349  166.1830 C.ar    1  UNL1       -0.0023
     26 C         142.1297  139.3714  167.0301 C.ar    1  UNL1        0.0293
     27 C         141.5454  140.7415  166.8532 C.ar    1  UNL1        0.1398
     28 F         140.3870  141.1781  167.7003 F       1  UNL1       -0.2042
     29 C         142.1196  141.6751  165.8291 C.ar    1  UNL1        0.0251
     30 C         143.2779  141.2386  164.9820 C.ar    1  UNL1       -0.0232
     31 C         142.9881  142.8748  164.3916 C.3     1  UNL1        0.0761
@<TRIPOS>BOND
     1    10    11    1
     2    11    12   ar
     3    12    13   ar
     4    13    14    1
     5    13    15   ar
     6    15     4    1
     7     4     5   ar
     8     5     6   ar
     9     6     7   ar
    10     7     3    1
    11     3     2    1
    12     2     1    1
    13     1    17    1
    14    17    18    1
    15    18    19    1
    16    19    20    1
    17    20    21    1
    18    21    22    1
    19    22    23    1
    20    23    24    1
    21    24    25   ar
    22    25    26   ar
    23    26    27   ar
    24    27    28    1
    25    27    29   ar
    26    29    30   ar
    27    21    31    1
    28     7     8   ar
    29     8     9    1
    30    15    16   ar
    31    16    11   ar
    32     8     4   ar
    33    31    18    1
    34    30    21    1
    35    30    24   ar
@<TRIPOS>MOLECULE
*****
 31 35 0 0 0
SMALL
GASTEIGER

@<TRIPOS>ATOM
      1 C         142.7178  144.1697  161.8582 C.3     1  UNL1        0.0294
      2 C         142.5498  143.6804  160.4501 C.3     1  UNL1        0.0666
      3 S         141.1903  143.2949  159.9473 S.3     1  UNL1       -0.0756
      4 C         139.0769  141.3033  162.5227 C.ar    1  UNL1        0.1740
      5 N         138.1370  142.4206  162.1785 N.ar    1  UNL1       -0.1277
      6 N         138.8143  143.3026  161.1719 N.ar    1  UNL1       -0.1221
      7 C         140.1728  142.7305  160.8939 C.ar    1  UNL1        0.1932
      8 N         140.3351  141.4949  161.7287 N.ar    1  UNL1       -0.2880
      9 C         141.5435  140.6068  161.7636 C.3     1  UNL1        0.1340
     10 C         137.9772  138.6658  166.9629 C.3     1  UNL1        0.0594
     11 C         138.3007  138.9777  165.5318 C.ar    1  UNL1        0.0883
     12 N         138.4785  137.9760  164.4295 N.ar    1  UNL1       -0.2469
     13 C         138.7909  138.7252  163.1682 C.ar    1  UNL1        0.0685
     14 C         139.0436  138.1166  161.8207 C.3     1  UNL1        0.0527
     15 C         138.8062  140.1900  163.4909 C.ar    1  UNL1        0.0799
     16 S         138.5033  140.3461  164.9517 S.2     1  UNL1       -0.0680
     17 C         143.9686  143.8466  162.6204 C.3     1  UNL1        0.0730
     18 N         144.1371  142.4940  163.2464 N.3     1  UNL1       -0.2724
     19 C         145.0872  141.4251  162.7938 C.3     1  UNL1        0.0725
     20 C         144.9223  140.2433  163.7026 C.3     1  UNL1        0.0227
     21 C         143.8703  140.5816  164.7169 C.3     1  UNL1        0.0350
     22 C         144.3556  139.1906  164.9989 C.3     1  UNL1        0.0101
     23 C         143.6035  138.6693  166.1874 C.3     1  UNL1        0.0264
     24 C         142.6535  139.7381  166.6400 C.ar    1  UNL1       -0.0260
     25 C         141.6594  139.7879  167.7622 C.ar    1  UNL1       -0.0023
     26 C         140.8303  141.0195  167.9757 C.ar    1  UNL1        0.0293
     27 C         140.9951  142.2014  167.0669 C.ar    1  UNL1        0.1398
     28 F         140.1660  143.4331  167.2803 F       1  UNL1       -0.2042
     29 C         141.9891  142.1516  165.9446 C.ar    1  UNL1        0.0251
     30 C         142.8183  140.9200  165.7312 C.ar    1  UNL1       -0.0232
     31 C         143.3850  141.9727  164.4349 C.3     1  UNL1        0.0761
@<TRIPOS>BOND
     1    10    11    1
     2    11    12   ar
     3    12    13   ar
     4    13    14    1
     5    13    15   ar
     6    15     4    1
     7     4     5   ar
     8     5     6   ar
     9     6     7   ar
    10     7     3    1
    11     3     2    1
    12     2     1    1
    13     1    17    1
    14    17    18    1
    15    18    19    1
    16    19    20    1
    17    20    21    1
    18    21    22    1
    19    22    23    1
    20    23    24    1
    21    24    25   ar
    22    25    26   ar
    23    26    27   ar
    24    27    28    1
    25    27    29   ar
    26    29    30   ar
    27    21    31    1
    28     7     8   ar
    29     8     9    1
    30    15    16   ar
    31    16    11   ar
    32     8     4   ar
    33    31    18    1
    34    30    21    1
    35    30    24   ar
@<TRIPOS>MOLECULE
*****
 31 35 0 0 0
SMALL
GASTEIGER

@<TRIPOS>ATOM
      1 C         138.9173  141.3634  161.0652 C.3     1  UNL1        0.0294
      2 C         137.8201  140.8061  161.9228 C.3     1  UNL1        0.0666
      3 S         137.7202  141.2042  163.3655 S.3     1  UNL1       -0.0756
      4 C         139.9046  139.8602  166.2790 C.ar    1  UNL1        0.1740
      5 N         139.2955  138.5900  165.7634 N.ar    1  UNL1       -0.1277
      6 N         138.4032  138.9389  164.6093 N.ar    1  UNL1       -0.1221
      7 C         138.4607  140.4247  164.4115 C.ar    1  UNL1        0.1932
      8 N         139.3886  140.9941  165.4434 N.ar    1  UNL1       -0.2880
      9 C         139.7389  142.4430  165.6105 C.3     1  UNL1        0.1340
     10 C         141.9094  140.8329  171.0659 C.3     1  UNL1        0.0594
     11 C         141.7830  140.4232  169.6285 C.ar    1  UNL1        0.0883
     12 N         142.8854  139.8857  168.7648 N.ar    1  UNL1       -0.2469
     13 C         142.3159  139.6094  167.4049 C.ar    1  UNL1        0.0685
     14 C         143.0685  139.0624  166.2283 C.3     1  UNL1        0.0527
     15 C         140.8616  139.9761  167.4282 C.ar    1  UNL1        0.0799
     16 S         140.5322  140.4790  168.8025 S.2     1  UNL1       -0.0680
     17 C         139.0820  142.8481  160.9288 C.3     1  UNL1        0.0730
     18 N         140.0820  143.5731  161.7797 N.3     1  UNL1       -0.2724
     19 C         139.9689  144.9896  162.2600 C.3     1  UNL1        0.0725
     20 C         141.1878  145.3008  163.0769 C.3     1  UNL1        0.0227
     21 C         142.0543  144.0767  163.1016 C.3     1  UNL1        0.0350
     22 C         142.7377  145.1445  163.9033 C.3     1  UNL1        0.0101
     23 C         144.0265  144.5802  164.4234 C.3     1  UNL1        0.0264
     24 C         144.1396  143.1638  163.9431 C.ar    1  UNL1       -0.0260
     25 C         145.1951  142.1171  164.1441 C.ar    1  UNL1       -0.0023
     26 C         145.0317  140.7592  163.5282 C.ar    1  UNL1        0.0293
     27 C         143.8129  140.4479  162.7113 C.ar    1  UNL1        0.1398
     28 F         143.6494  139.0900  162.0953 F       1  UNL1       -0.2042
     29 C         142.7574  141.4946  162.5103 C.ar    1  UNL1        0.0251
     30 C         142.9208  142.8525  163.1262 C.ar    1  UNL1       -0.0232
     31 C         141.3709  143.0089  162.2998 C.3     1  UNL1        0.0761
@<TRIPOS>BOND
     1    10    11    1
     2    11    12   ar
     3    12    13   ar
     4    13    14    1
     5    13    15   ar
     6    15     4    1
     7     4     5   ar
     8     5     6   ar
     9     6     7   ar
    10     7     3    1
    11     3     2    1
    12     2     1    1
    13     1    17    1
    14    17    18    1
    15    18    19    1
    16    19    20    1
    17    20    21    1
    18    21    22    1
    19    22    23    1
    20    23    24    1
    21    24    25   ar
    22    25    26   ar
    23    26    27   ar
    24    27    28    1
    25    27    29   ar
    26    29    30   ar
    27    21    31    1
    28     7     8   ar
    29     8     9    1
    30    15    16   ar
    31    16    11   ar
    32     8     4   ar
    33    31    18    1
    34    30    21    1
    35    30    24   ar
@<TRIPOS>MOLECULE
*****
 31 35 0 0 0
SMALL
GASTEIGER

@<TRIPOS>ATOM
      1 C         137.7207  144.1460  164.3733 C.3     1  UNL1        0.0294
      2 C         138.8912  144.5755  165.2074 C.3     1  UNL1        0.0666
      3 S         140.2861  144.4224  164.6776 S.3     1  UNL1       -0.0756
      4 C         142.0666  141.0615  163.9029 C.ar    1  UNL1        0.1740
      5 N         141.8183  140.9252  165.3760 N.ar    1  UNL1       -0.1277
      6 N         141.1211  142.1676  165.8454 N.ar    1  UNL1       -0.1221
      7 C         140.9385  143.0717  164.6626 C.ar    1  UNL1        0.1932
      8 N         141.5228  142.3882  163.4620 N.ar    1  UNL1       -0.2880
      9 C         141.5573  142.9352  162.0657 C.3     1  UNL1        0.1340
     10 C         142.9455  137.4998  160.1052 C.3     1  UNL1        0.0594
     11 C         143.1444  138.4119  161.2794 C.ar    1  UNL1        0.0883
     12 N         144.4101  138.5698  162.0686 N.ar    1  UNL1       -0.2469
     13 C         144.1605  139.5816  163.1474 C.ar    1  UNL1        0.0685
     14 C         145.1561  140.0448  164.1693 C.3     1  UNL1        0.0527
     15 C         142.7404  140.0490  163.0250 C.ar    1  UNL1        0.0799
     16 S         142.1124  139.3260  161.8704 S.2     1  UNL1       -0.0680
     17 C         137.8492  144.0754  162.8805 C.3     1  UNL1        0.0730
     18 N         138.0215  142.7475  162.2045 N.3     1  UNL1       -0.2724
     19 C         138.0358  142.5072  160.7239 C.3     1  UNL1        0.0725
     20 C         138.2329  141.0379  160.4948 C.3     1  UNL1        0.0227
     21 C         138.3404  140.3703  161.8337 C.3     1  UNL1        0.0350
     22 C         138.4711  139.3137  160.7771 C.3     1  UNL1        0.0101
     23 C         138.6593  137.9930  161.4630 C.3     1  UNL1        0.0264
     24 C         138.6450  138.2334  162.9434 C.ar    1  UNL1       -0.0260
     25 C         138.7860  137.3043  164.1126 C.ar    1  UNL1       -0.0023
     26 C         138.7299  137.8444  165.5108 C.ar    1  UNL1        0.0293
     27 C         138.5328  139.3135  165.7400 C.ar    1  UNL1        0.1398
     28 F         138.4767  139.8537  167.1383 F       1  UNL1       -0.2042
     29 C         138.3918  140.2427  164.5709 C.ar    1  UNL1        0.0251
     30 C         138.4479  139.7026  163.1726 C.ar    1  UNL1       -0.0232
     31 C         138.2097  141.4269  162.8904 C.3     1  UNL1        0.0761
@<TRIPOS>BOND
     1    10    11    1
     2    11    12   ar
     3    12    13   ar
     4    13    14    1
     5    13    15   ar
     6    15     4    1
     7     4     5   ar
     8     5     6   ar
     9     6     7   ar
    10     7     3    1
    11     3     2    1
    12     2     1    1
    13     1    17    1
    14    17    18    1
    15    18    19    1
    16    19    20    1
    17    20    21    1
    18    21    22    1
    19    22    23    1
    20    23    24    1
    21    24    25   ar
    22    25    26   ar
    23    26    27   ar
    24    27    28    1
    25    27    29   ar
    26    29    30   ar
    27    21    31    1
    28     7     8   ar
    29     8     9    1
    30    15    16   ar
    31    16    11   ar
    32     8     4   ar
    33    31    18    1
    34    30    21    1
    35    30    24   ar
@<TRIPOS>MOLECULE
*****
 31 35 0 0 0
SMALL
GASTEIGER

@<TRIPOS>ATOM
      1 C         140.3165  143.7586  159.9448 C.3     1  UNL1        0.0294
      2 C         140.4026  145.2311  160.2177 C.3     1  UNL1        0.0666
      3 S         139.9256  145.7799  161.5297 S.3     1  UNL1       -0.0756
      4 C         139.1918  143.2960  164.4207 C.ar    1  UNL1        0.1740
      5 N         137.8061  143.5724  163.9171 N.ar    1  UNL1       -0.1277
      6 N         137.9123  144.5364  162.7729 N.ar    1  UNL1       -0.1221
      7 C         139.3637  144.8559  162.5693 C.ar    1  UNL1        0.1932
      8 N         140.1544  144.0894  163.5876 N.ar    1  UNL1       -0.2880
      9 C         141.6460  144.1121  163.7453 C.3     1  UNL1        0.1340
     10 C         141.1504  141.4866  168.9781 C.3     1  UNL1        0.0594
     11 C         140.4518  141.5545  167.6525 C.ar    1  UNL1        0.0883
     12 N         139.7586  140.4175  166.9620 N.ar    1  UNL1       -0.2469
     13 C         139.2022  140.9315  165.6673 C.ar    1  UNL1        0.0685
     14 C         138.4317  140.1314  164.6592 C.3     1  UNL1        0.0527
     15 C         139.5516  142.3861  165.5577 C.ar    1  UNL1        0.0799
     16 S         140.3239  142.7712  166.7846 S.2     1  UNL1       -0.0680
     17 C         141.4387  142.8526  160.3566 C.3     1  UNL1        0.0730
     18 N         141.1501  141.4372  160.7609 N.3     1  UNL1       -0.2724
     19 C         140.3879  140.4279  159.9545 C.3     1  UNL1        0.0725
     20 C         140.3398  139.1496  160.7378 C.3     1  UNL1        0.0227
     21 C         141.0723  139.3689  162.0284 C.3     1  UNL1        0.0350
     22 C         140.5715  137.9550  162.0141 C.3     1  UNL1        0.0101
     23 C         140.9945  137.3005  163.2958 C.3     1  UNL1        0.0264
     24 C         141.7566  138.3099  164.1021 C.ar    1  UNL1       -0.0260
     25 C         142.4131  138.2302  165.4485 C.ar    1  UNL1       -0.0023
     26 C         143.1177  139.4287  166.0115 C.ar    1  UNL1        0.0293
     27 C         143.1658  140.7070  165.2283 C.ar    1  UNL1        0.1398
     28 F         143.8704  141.9056  165.7913 F       1  UNL1       -0.2042
     29 C         142.5094  140.7867  163.8819 C.ar    1  UNL1        0.0251
     30 C         141.8048  139.5882  163.3189 C.ar    1  UNL1       -0.0232
     31 C         141.5731  140.7827  162.0426 C.3     1  UNL1        0.0761
@<TRIPOS>BOND
     1    10    11    1
     2    11    12   ar
     3    12    13   ar
     4    13    14    1
     5    13    15   ar
     6    15     4    1
     7     4     5   ar
     8     5     6   ar
     9     6     7   ar
    10     7     3    1
    11     3     2    1
    12     2     1    1
    13     1    17    1
    14    17    18    1
    15    18    19    1
    16    19    20    1
    17    20    21    1
    18    21    22    1
    19    22    23    1
    20    23    24    1
    21    24    25   ar
    22    25    26   ar
    23    26    27   ar
    24    27    28    1
    25    27    29   ar
    26    29    30   ar
    27    21    31    1
    28     7     8   ar
    29     8     9    1
    30    15    16   ar
    31    16    11   ar
    32     8     4   ar
    33    31    18    1
    34    30    21    1
    35    30    24   ar
@<TRIPOS>MOLECULE
*****
 31 35 0 0 0
SMALL
GASTEIGER

@<TRIPOS>ATOM
      1 C         144.8173  141.9880  161.3724 C.3     1  UNL1        0.0294
      2 C         144.5687  140.7320  162.1539 C.3     1  UNL1        0.0666
      3 S         145.0395  140.6268  163.5742 S.3     1  UNL1       -0.0756
      4 C         142.5265  141.0889  166.4960 C.ar    1  UNL1        0.1740
      5 N         143.0487  142.4863  166.3390 N.ar    1  UNL1       -0.1277
      6 N         144.0537  142.4832  165.2255 N.ar    1  UNL1       -0.1221
      7 C         144.1525  141.0840  164.6941 C.ar    1  UNL1        0.1932
      8 N         143.2087  140.2222  165.4793 N.ar    1  UNL1       -0.2880
      9 C         142.9861  138.7519  165.2824 C.3     1  UNL1        0.1340
     10 C         140.1532  139.8574  171.0492 C.3     1  UNL1        0.0594
     11 C         140.4111  140.0714  169.5871 C.ar    1  UNL1        0.0883
     12 N         139.4395  139.8141  168.4736 N.ar    1  UNL1       -0.2469
     13 C         140.1137  140.1639  167.1801 C.ar    1  UNL1        0.0685
     14 C         139.5064  140.0587  165.8126 C.3     1  UNL1        0.0527
     15 C         141.5019  140.6374  167.4942 C.ar    1  UNL1        0.0799
     16 S         141.6857  140.5803  168.9818 S.2     1  UNL1       -0.0680
     17 C         143.6619  142.8303  160.9188 C.3     1  UNL1        0.0730
     18 N         142.7638  143.4787  161.9302 N.3     1  UNL1       -0.2724
     19 C         143.0907  144.6911  162.7507 C.3     1  UNL1        0.0725
     20 C         141.9100  144.9902  163.6263 C.3     1  UNL1        0.0227
     21 C         140.8535  143.9627  163.3469 C.3     1  UNL1        0.0350
     22 C         140.3258  144.8969  164.3952 C.3     1  UNL1        0.0101
     23 C         138.9432  144.4467  164.7636 C.3     1  UNL1        0.0264
     24 C         138.6165  143.2344  163.9431 C.ar    1  UNL1       -0.0260
     25 C         137.3964  142.3641  163.8801 C.ar    1  UNL1       -0.0023
     26 C         137.3569  141.1947  162.9416 C.ar    1  UNL1        0.0293
     27 C         138.5375  140.8955  162.0660 C.ar    1  UNL1        0.1398
     28 F         138.4980  139.7260  161.1274 F       1  UNL1       -0.2042
     29 C         139.7576  141.7658  162.1290 C.ar    1  UNL1        0.0251
     30 C         139.7971  142.9352  163.0676 C.ar    1  UNL1       -0.0232
     31 C         141.3812  143.0285  162.2987 C.3     1  UNL1        0.0761
@<TRIPOS>BOND
     1    10    11    1
     2    11    12   ar
     3    12    13   ar
     4    13    14    1
     5    13    15   ar
     6    15     4    1
     7     4     5   ar
     8     5     6   ar
     9     6     7   ar
    10     7     3    1
    11     3     2    1
    12     2     1    1
    13     1    17    1
    14    17    18    1
    15    18    19    1
    16    19    20    1
    17    20    21    1
    18    21    22    1
    19    22    23    1
    20    23    24    1
    21    24    25   ar
    22    25    26   ar
    23    26    27   ar
    24    27    28    1
    25    27    29   ar
    26    29    30   ar
    27    21    31    1
    28     7     8   ar
    29     8     9    1
    30    15    16   ar
    31    16    11   ar
    32     8     4   ar
    33    31    18    1
    34    30    21    1
    35    30    24   ar
@<TRIPOS>MOLECULE
*****
 31 35 0 0 0
SMALL
GASTEIGER

@<TRIPOS>ATOM
      1 C         145.1323  141.5185  164.0136 C.3     1  UNL1        0.0294
      2 C         144.8114  142.5773  165.0266 C.3     1  UNL1        0.0666
      3 S         144.1025  143.8296  164.6036 S.3     1  UNL1       -0.0756
      4 C         141.4952  143.4798  161.7496 C.ar    1  UNL1        0.1740
      5 N         142.5844  144.2426  161.0554 N.ar    1  UNL1       -0.1277
      6 N         143.6936  144.4665  162.0400 N.ar    1  UNL1       -0.1221
      7 C         143.2900  143.8421  163.3427 C.ar    1  UNL1        0.1932
      8 N         141.9314  143.2323  163.1633 N.ar    1  UNL1       -0.2880
      9 C         141.1467  142.5029  164.2132 C.3     1  UNL1        0.1340
     10 C         137.9670  141.0748  158.6434 C.3     1  UNL1        0.0594
     11 C         138.5761  141.9361  159.7098 C.ar    1  UNL1        0.0883
     12 N         137.8264  142.7982  160.6818 N.ar    1  UNL1       -0.2469
     13 C         138.8286  143.4814  161.5642 C.ar    1  UNL1        0.0685
     14 C         138.5166  144.4367  162.6778 C.3     1  UNL1        0.0527
     15 C         140.1978  143.0415  161.1376 C.ar    1  UNL1        0.0799
     16 S         140.0417  142.0865  159.9915 S.2     1  UNL1       -0.0680
     17 C         144.9539  140.0701  164.3603 C.3     1  UNL1        0.0730
     18 N         143.7427  139.3274  163.8794 N.3     1  UNL1       -0.2724
     19 C         143.6345  138.5514  162.6002 C.3     1  UNL1        0.0725
     20 C         142.2519  137.9748  162.5235 C.3     1  UNL1        0.0227
     21 C         141.5056  138.3944  163.7552 C.3     1  UNL1        0.0350
     22 C         140.5842  137.5584  162.9172 C.3     1  UNL1        0.0101
     23 C         139.2685  137.4614  163.6310 C.3     1  UNL1        0.0264
     24 C         139.3768  138.2373  164.9101 C.ar    1  UNL1       -0.0260
     25 C         138.3950  138.4933  166.0148 C.ar    1  UNL1       -0.0023
     26 C         138.7958  139.3260  167.1964 C.ar    1  UNL1        0.0293
     27 C         140.1783  139.9026  167.2732 C.ar    1  UNL1        0.1398
     28 F         140.5791  140.7353  168.4548 F       1  UNL1       -0.2042
     29 C         141.1601  139.6466  166.1684 C.ar    1  UNL1        0.0251
     30 C         140.7593  138.8140  164.9869 C.ar    1  UNL1       -0.0232
     31 C         142.4270  139.2303  164.5932 C.3     1  UNL1        0.0761
@<TRIPOS>BOND
     1    10    11    1
     2    11    12   ar
     3    12    13   ar
     4    13    14    1
     5    13    15   ar
     6    15     4    1
     7     4     5   ar
     8     5     6   ar
     9     6     7   ar
    10     7     3    1
    11     3     2    1
    12     2     1    1
    13     1    17    1
    14    17    18    1
    15    18    19    1
    16    19    20    1
    17    20    21    1
    18    21    22    1
    19    22    23    1
    20    23    24    1
    21    24    25   ar
    22    25    26   ar
    23    26    27   ar
    24    27    28    1
    25    27    29   ar
    26    29    30   ar
    27    21    31    1
    28     7     8   ar
    29     8     9    1
    30    15    16   ar
    31    16    11   ar
    32     8     4   ar
    33    31    18    1
    34    30    21    1
    35    30    24   ar
@<TRIPOS>MOLECULE
*****
 31 35 0 0 0
SMALL
GASTEIGER

@<TRIPOS>ATOM
      1 C         143.9839  141.9829  161.3127 C.3     1  UNL1        0.0294
      2 C         144.5933  142.2790  162.6510 C.3     1  UNL1        0.0666
      3 S         145.0946  141.1575  163.5116 S.3     1  UNL1       -0.0756
      4 C         142.4784  139.7510  166.0103 C.ar    1  UNL1        0.1740
      5 N         142.8219  138.5192  165.2262 N.ar    1  UNL1       -0.1277
      6 N         143.8437  138.8961  164.1948 N.ar    1  UNL1       -0.1221
      7 C         144.1318  140.3609  164.3414 C.ar    1  UNL1        0.1932
      8 N         143.2880  140.8893  165.4634 N.ar    1  UNL1       -0.2880
      9 C         143.2589  142.3070  165.9526 C.3     1  UNL1        0.1340
     10 C         140.4268  140.1962  170.8552 C.3     1  UNL1        0.0594
     11 C         140.5546  140.0352  169.3694 C.ar    1  UNL1        0.0883
     12 N         139.4220  139.8708  168.3997 N.ar    1  UNL1       -0.2469
     13 C         140.0048  139.7444  167.0234 C.ar    1  UNL1        0.0685
     14 C         139.2308  139.5634  165.7513 C.3     1  UNL1        0.0527
     15 C         141.4976  139.8306  167.1424 C.ar    1  UNL1        0.0799
     16 S         141.8374  140.0104  168.5923 S.2     1  UNL1       -0.0680
     17 C         143.2838  140.6769  161.0798 C.3     1  UNL1        0.0730
     18 N         141.8236  140.5419  161.3954 N.3     1  UNL1       -0.2724
     19 C         140.9327  139.4091  160.9795 C.3     1  UNL1        0.0725
     20 C         139.5565  139.6832  161.5095 C.3     1  UNL1        0.0227
     21 C         139.5968  140.9854  162.2529 C.3     1  UNL1        0.0350
     22 C         138.1956  140.4547  162.3234 C.3     1  UNL1        0.0101
     23 C         137.3701  141.4290  163.1104 C.3     1  UNL1        0.0264
     24 C         138.2610  142.5617  163.5262 C.ar    1  UNL1       -0.0260
     25 C         137.9969  143.8074  164.3190 C.ar    1  UNL1       -0.0023
     26 C         139.1091  144.7790  164.5818 C.ar    1  UNL1        0.0293
     27 C         140.4853  144.5050  164.0520 C.ar    1  UNL1        0.1398
     28 F         141.5975  145.4766  164.3148 F       1  UNL1       -0.2042
     29 C         140.7493  143.2592  163.2592 C.ar    1  UNL1        0.0251
     30 C         139.6372  142.2877  162.9963 C.ar    1  UNL1       -0.0232
     31 C         140.9980  141.5162  162.1824 C.3     1  UNL1        0.0761
@<TRIPOS>BOND
     1    10    11    1
     2    11    12   ar
     3    12    13   ar
     4    13    14    1
     5    13    15   ar
     6    15     4    1
     7     4     5   ar
     8     5     6   ar
     9     6     7   ar
    10     7     3    1
    11     3     2    1
    12     2     1    1
    13     1    17    1
    14    17    18    1
    15    18    19    1
    16    19    20    1
    17    20    21    1
    18    21    22    1
    19    22    23    1
    20    23    24    1
    21    24    25   ar
    22    25    26   ar
    23    26    27   ar
    24    27    28    1
    25    27    29   ar
    26    29    30   ar
    27    21    31    1
    28     7     8   ar
    29     8     9    1
    30    15    16   ar
    31    16    11   ar
    32     8     4   ar
    33    31    18    1
    34    30    21    1
    35    30    24   ar
@<TRIPOS>MOLECULE
*****
 31 35 0 0 0
SMALL
GASTEIGER

@<TRIPOS>ATOM
      1 C         144.1660  142.6754  161.5351 C.3     1  UNL1        0.0294
      2 C         143.3739  143.8065  162.1210 C.3     1  UNL1        0.0666
      3 S         143.3984  144.0520  163.6005 S.3     1  UNL1       -0.0756
      4 C         140.8397  142.5027  166.0742 C.ar    1  UNL1        0.1740
      5 N         140.0061  143.5664  165.4232 N.ar    1  UNL1       -0.1277
      6 N         140.8631  144.2762  164.4174 N.ar    1  UNL1       -0.1221
      7 C         142.2264  143.6512  164.4467 C.ar    1  UNL1        0.1932
      8 N         142.2120  142.5552  165.4706 N.ar    1  UNL1       -0.2880
      9 C         143.3670  141.6675  165.8282 C.3     1  UNL1        0.1340
     10 C         140.2270  140.1096  170.7409 C.3     1  UNL1        0.0594
     11 C         140.0999  140.4534  169.2864 C.ar    1  UNL1        0.0883
     12 N         139.2531  139.7315  168.2805 N.ar    1  UNL1       -0.2469
     13 C         139.4271  140.4113  166.9548 C.ar    1  UNL1        0.0685
     14 C         138.7633  140.0182  165.6685 C.3     1  UNL1        0.0527
     15 C         140.3816  141.5534  167.1414 C.ar    1  UNL1        0.0799
     16 S         140.7974  141.5794  168.5823 S.2     1  UNL1       -0.0680
     17 C         144.5013  141.4797  162.3765 C.3     1  UNL1        0.0730
     18 N         143.5495  140.3225  162.4483 N.3     1  UNL1       -0.2724
     19 C         143.9250  138.8824  162.6355 C.3     1  UNL1        0.0725
     20 C         142.6627  138.0722  162.6484 C.3     1  UNL1        0.0227
     21 C         141.5071  139.0116  162.4691 C.3     1  UNL1        0.0350
     22 C         140.9590  137.6208  162.5928 C.3     1  UNL1        0.0101
     23 C         139.4647  137.7006  162.4899 C.3     1  UNL1        0.0264
     24 C         139.0893  139.1407  162.3027 C.ar    1  UNL1       -0.0260
     25 C         137.7610  139.8190  162.1423 C.ar    1  UNL1       -0.0023
     26 C         137.6951  141.3075  161.9690 C.ar    1  UNL1        0.0293
     27 C         138.9573  142.1177  161.9561 C.ar    1  UNL1        0.1398
     28 F         138.8913  143.6063  161.7828 F       1  UNL1       -0.2042
     29 C         140.2855  141.4394  162.1165 C.ar    1  UNL1        0.0251
     30 C         140.3515  139.9509  162.2898 C.ar    1  UNL1       -0.0232
     31 C         142.0552  140.4024  162.3454 C.3     1  UNL1        0.0761
@<TRIPOS>BOND
     1    10    11    1
     2    11    12   ar
     3    12    13   ar
     4    13    14    1
     5    13    15   ar
     6    15     4    1
     7     4     5   ar
     8     5     6   ar
     9     6     7   ar
    10     7     3    1
    11     3     2    1
    12     2     1    1
    13     1    17    1
    14    17    18    1
    15    18    19    1
    16    19    20    1
    17    20    21    1
    18    21    22    1
    19    22    23    1
    20    23    24    1
    21    24    25   ar
    22    25    26   ar
    23    26    27   ar
    24    27    28    1
    25    27    29   ar
    26    29    30   ar
    27    21    31    1
    28     7     8   ar
    29     8     9    1
    30    15    16   ar
    31    16    11   ar
    32     8     4   ar
    33    31    18    1
    34    30    21    1
    35    30    24   ar
