@<TRIPOS>MOLECULE
*****
 40 44 0 0 0
SMALL
GASTEIGER

@<TRIPOS>ATOM
      1 C         141.1273  138.6492  159.5640 C.2     1  UNL1        0.2425
      2 O         142.2933  139.1801  160.3440 O.2     1  UNL1       -0.2733
      3 N         139.8224  138.3824  160.2541 N.am    1  UNL1       -0.3018
      4 H         139.0570  138.0340  159.7421 H       1  UNL1        0.1495
      5 C         139.6836  138.6464  161.7241 C.3     1  UNL1        0.1035
      6 C         140.0336  137.8952  162.9744 C.3     1  UNL1        0.0933
      7 N         139.4874  139.0198  163.8031 N.3     1  UNL1       -0.2711
      8 C         139.1374  139.7711  162.5529 C.3     1  UNL1        0.0933
      9 C         139.3487  139.2839  165.2731 C.3     1  UNL1        0.0578
     10 C         138.1839  138.7180  166.0301 C.3     1  UNL1        0.0187
     11 C         138.0452  138.9821  167.5001 C.3     1  UNL1        0.0331
     12 C         139.0712  139.8119  168.2132 C.3     1  UNL1        0.1140
     13 O         138.1520  139.4963  169.3557 O.3     1  UNL1       -0.3821
     14 C         140.2361  140.3778  167.4562 C.3     1  UNL1        0.0331
     15 C         140.3748  140.1138  165.9862 C.3     1  UNL1        0.0187
     16 H         137.4174  138.9484  169.0377 H       1  UNL1        0.2107
     17 C         139.7781  140.5322  169.3231 C.ar    1  UNL1        0.0518
     18 C         140.1258  139.9593  170.6651 C.ar    1  UNL1        0.1039
     19 N         140.8239  141.0247  171.4571 N.ar    1  UNL1       -0.2350
     20 C         140.9075  142.2562  170.6047 C.ar    1  UNL1        0.1343
     21 S         140.2612  141.9517  169.2858 S.2     1  UNL1       -0.0665
     22 C         141.2660  138.3852  158.0940 C.3     1  UNL1        0.1736
     23 N         142.1001  137.2346  157.6141 N.pl3   1  UNL1       -0.3252
     24 H         142.9068  136.9699  158.1124 H       1  UNL1        0.1473
     25 C         140.2767  136.3132  154.2117 C.ar    1  UNL1        0.1503
     26 C         140.6717  137.0604  155.4509 C.ar    1  UNL1        0.0440
     27 C         141.7051  136.4874  156.3749 C.ar    1  UNL1        0.0486
     28 C         142.3435  135.1671  156.0597 C.ar    1  UNL1        0.0308
     29 C         143.3769  134.5941  156.9837 C.ar    1  UNL1        0.0066
     30 C         144.0152  133.2738  156.6684 C.ar    1  UNL1        0.0716
     31 C         143.6202  132.5266  155.4292 C.ar    1  UNL1        0.0054
     32 C         142.5869  133.0996  154.5053 C.ar    1  UNL1        0.0191
     33 C         141.9485  134.4198  154.8205 C.ar    1  UNL1        0.0832
     34 N         140.9151  134.9929  153.8965 N.ar    1  UNL1       -0.2350
     35 C         145.0486  132.7007  157.5925 C.3     1  UNL1        0.4186
     36 F         146.0820  132.1276  158.5164 F       1  UNL1       -0.1659
     37 F         145.5648  131.8374  156.4797 F       1  UNL1       -0.1659
     38 F         144.5325  133.5640  158.7052 F       1  UNL1       -0.1659
     39 N         138.2100  137.4593  152.3637 N.1     1  UNL1       -0.1893
     40 C         139.2433  136.8862  153.2877 C.1     1  UNL1        0.1198
@<TRIPOS>BOND
     1    39    40    3
     2    40    25    1
     3    25    26   ar
     4    26    27   ar
     5    27    23    1
     6    23    22    1
     7    22     1    1
     8     1     2    2
     9     1     3   am
    10     3     5    1
    11     5     6    1
    12     6     7    1
    13     9     7    1
    14     9    10    1
    15    10    11    1
    16    11    12    1
    17    12    13    1
    18    12    17    1
    19    17    18   ar
    20    18    19   ar
    21    19    20   ar
    22    20    21   ar
    23    12    14    1
    24    14    15    1
    25     7     8    1
    26    27    28   ar
    27    28    29   ar
    28    29    30   ar
    29    30    35    1
    30    35    36    1
    31    35    37    1
    32    35    38    1
    33    30    31   ar
    34    31    32   ar
    35    32    33   ar
    36    33    34   ar
    37    34    25   ar
    38     8     5    1
    39    33    28   ar
    40    15     9    1
    41    21    17   ar
    42    23    24    1
    43     3     4    1
    44    13    16    1
@<TRIPOS>MOLECULE
*****
 40 44 0 0 0
SMALL
GASTEIGER

@<TRIPOS>ATOM
      1 C         143.0664  142.7180  164.3248 C.2     1  UNL1        0.2425
      2 O         144.1202  143.1851  163.3650 O.2     1  UNL1       -0.2733
      3 N         141.6277  142.6854  163.9014 N.am    1  UNL1       -0.3018
      4 H         140.9360  142.3788  164.5313 H       1  UNL1        0.1495
      5 C         141.2429  143.1200  162.5183 C.3     1  UNL1        0.1035
      6 C         141.6208  142.6966  161.1298 C.3     1  UNL1        0.0933
      7 N         140.6988  143.7346  160.5622 N.3     1  UNL1       -0.2711
      8 C         140.3208  144.1581  161.9506 C.3     1  UNL1        0.0933
      9 C         140.3140  144.1691  159.1791 C.3     1  UNL1        0.0578
     10 C         139.4357  143.2938  158.3350 C.3     1  UNL1        0.0187
     11 C         139.0509  143.7284  156.9519 C.3     1  UNL1        0.0331
     12 C         139.5444  145.0383  156.4128 C.3     1  UNL1        0.1140
     13 O         138.7406  144.5603  155.2400 O.3     1  UNL1       -0.3821
     14 C         140.4227  145.9137  157.2568 C.3     1  UNL1        0.0331
     15 C         140.8075  145.4791  158.6400 C.3     1  UNL1        0.0187
     16 H         138.3482  143.6977  155.4470 H       1  UNL1        0.2107
     17 C         139.7587  146.1822  155.4664 C.ar    1  UNL1        0.0518
     18 C         140.6589  146.1771  154.2665 C.ar    1  UNL1        0.1039
     19 N         140.5670  147.5237  153.6123 N.ar    1  UNL1       -0.2350
     20 C         139.6100  148.3611  154.4078 C.ar    1  UNL1        0.1343
     21 S         139.1104  147.5320  155.5537 S.2     1  UNL1       -0.0665
     22 C         143.4512  142.2834  165.7079 C.3     1  UNL1        0.1736
     23 N         143.1010  140.9054  166.1857 N.pl3   1  UNL1       -0.3252
     24 H         143.6725  140.1408  165.9448 H       1  UNL1        0.1473
     25 C         140.6088  141.0243  169.2719 C.ar    1  UNL1        0.1503
     26 C         141.8297  141.2375  168.4270 C.ar    1  UNL1        0.0440
     27 C         141.8800  140.6922  167.0306 C.ar    1  UNL1        0.0486
     28 C         140.7093  139.9338  166.4789 C.ar    1  UNL1        0.0308
     29 C         140.7596  139.3885  165.0825 C.ar    1  UNL1        0.0066
     30 C         139.5890  138.6301  164.5309 C.ar    1  UNL1        0.0716
     31 C         138.3680  138.4169  165.3758 C.ar    1  UNL1        0.0054
     32 C         138.3177  138.9622  166.7722 C.ar    1  UNL1        0.0191
     33 C         139.4884  139.7206  167.3238 C.ar    1  UNL1        0.0832
     34 N         139.4381  140.2659  168.7203 N.ar    1  UNL1       -0.2350
     35 C         139.6392  138.0848  163.1344 C.3     1  UNL1        0.4186
     36 F         139.6895  137.5395  161.7379 F       1  UNL1       -0.1659
     37 F         138.4891  137.1746  163.4485 F       1  UNL1       -0.1659
     38 F         140.7893  138.9950  162.8203 F       1  UNL1       -0.1659
     39 N         140.5083  142.1149  172.0649 N.1     1  UNL1       -0.1893
     40 C         140.5585  141.5696  170.6684 C.1     1  UNL1        0.1198
@<TRIPOS>BOND
     1    39    40    3
     2    40    25    1
     3    25    26   ar
     4    26    27   ar
     5    27    23    1
     6    23    22    1
     7    22     1    1
     8     1     2    2
     9     1     3   am
    10     3     5    1
    11     5     6    1
    12     6     7    1
    13     9     7    1
    14     9    10    1
    15    10    11    1
    16    11    12    1
    17    12    13    1
    18    12    17    1
    19    17    18   ar
    20    18    19   ar
    21    19    20   ar
    22    20    21   ar
    23    12    14    1
    24    14    15    1
    25     7     8    1
    26    27    28   ar
    27    28    29   ar
    28    29    30   ar
    29    30    35    1
    30    35    36    1
    31    35    37    1
    32    35    38    1
    33    30    31   ar
    34    31    32   ar
    35    32    33   ar
    36    33    34   ar
    37    34    25   ar
    38     8     5    1
    39    33    28   ar
    40    15     9    1
    41    21    17   ar
    42    23    24    1
    43     3     4    1
    44    13    16    1
@<TRIPOS>MOLECULE
*****
 40 44 0 0 0
SMALL
GASTEIGER

@<TRIPOS>ATOM
      1 C         142.8337  138.5531  159.2012 C.2     1  UNL1        0.2425
      2 O         144.1108  139.0528  159.8089 O.2     1  UNL1       -0.2733
      3 N         141.6433  138.2835  160.0733 N.am    1  UNL1       -0.3018
      4 H         140.8051  137.9555  159.6744 H       1  UNL1        0.1495
      5 C         141.7302  138.5135  161.5530 C.3     1  UNL1        0.1035
      6 C         141.4700  137.6805  162.7730 C.3     1  UNL1        0.0933
      7 N         141.8530  138.8387  163.6456 N.3     1  UNL1       -0.2711
      8 C         142.1132  139.6718  162.4257 C.3     1  UNL1        0.0933
      9 C         141.9398  139.0687  165.1253 C.3     1  UNL1        0.0578
     10 C         143.1033  138.5267  165.9016 C.3     1  UNL1        0.0187
     11 C         143.1901  138.7567  167.3813 C.3     1  UNL1        0.0331
     12 C         142.1135  139.5287  168.0847 C.3     1  UNL1        0.1140
     13 O         143.0113  139.2173  169.2453 O.3     1  UNL1       -0.3821
     14 C         140.9499  140.0707  167.3085 C.3     1  UNL1        0.0331
     15 C         140.8631  139.8407  165.8288 C.3     1  UNL1        0.0187
     16 H         143.7748  138.7057  168.9353 H       1  UNL1        0.2107
     17 C         141.3486  140.1925  169.1913 C.ar    1  UNL1        0.0518
     18 C         139.8552  140.2778  169.3031 C.ar    1  UNL1        0.1039
     19 N         139.5265  141.0256  170.5612 N.ar    1  UNL1       -0.2350
     20 C         140.8168  141.4024  171.2269 C.ar    1  UNL1        0.1343
     21 S         141.9429  140.8876  170.3803 S.2     1  UNL1       -0.0665
     22 C         142.7469  138.3232  157.7215 C.3     1  UNL1        0.1736
     23 N         143.2791  137.0528  157.1274 N.pl3   1  UNL1       -0.3252
     24 H         144.1908  136.7518  157.3451 H       1  UNL1        0.1473
     25 C         140.5361  136.1062  154.4201 C.ar    1  UNL1        0.1503
     26 C         141.3930  136.9179  155.3458 C.ar    1  UNL1        0.0440
     27 C         142.4222  136.2411  156.2017 C.ar    1  UNL1        0.0486
     28 C         142.5946  134.7527  156.1320 C.ar    1  UNL1        0.0308
     29 C         143.6238  134.0759  156.9880 C.ar    1  UNL1        0.0066
     30 C         143.7961  132.5875  156.9183 C.ar    1  UNL1        0.0716
     31 C         142.9392  131.7758  155.9925 C.ar    1  UNL1        0.0054
     32 C         141.9100  132.4526  155.1366 C.ar    1  UNL1        0.0191
     33 C         141.7377  133.9410  155.2063 C.ar    1  UNL1        0.0832
     34 N         140.7084  134.6178  154.3503 N.ar    1  UNL1       -0.2350
     35 C         144.8253  131.9107  157.7743 C.3     1  UNL1        0.4186
     36 F         145.8545  131.2340  158.6302 F       1  UNL1       -0.1659
     37 F         145.1527  133.2247  158.4194 F       1  UNL1       -0.1659
     38 F         144.4979  130.5968  157.1291 F       1  UNL1       -0.1659
     39 N         138.4777  137.4597  152.7081 N.1     1  UNL1       -0.1893
     40 C         139.5069  136.7830  153.5641 C.1     1  UNL1        0.1198
@<TRIPOS>BOND
     1    39    40    3
     2    40    25    1
     3    25    26   ar
     4    26    27   ar
     5    27    23    1
     6    23    22    1
     7    22     1    1
     8     1     2    2
     9     1     3   am
    10     3     5    1
    11     5     6    1
    12     6     7    1
    13     9     7    1
    14     9    10    1
    15    10    11    1
    16    11    12    1
    17    12    13    1
    18    12    17    1
    19    17    18   ar
    20    18    19   ar
    21    19    20   ar
    22    20    21   ar
    23    12    14    1
    24    14    15    1
    25     7     8    1
    26    27    28   ar
    27    28    29   ar
    28    29    30   ar
    29    30    35    1
    30    35    36    1
    31    35    37    1
    32    35    38    1
    33    30    31   ar
    34    31    32   ar
    35    32    33   ar
    36    33    34   ar
    37    34    25   ar
    38     8     5    1
    39    33    28   ar
    40    15     9    1
    41    21    17   ar
    42    23    24    1
    43     3     4    1
    44    13    16    1
@<TRIPOS>MOLECULE
*****
 40 44 0 0 0
SMALL
GASTEIGER

@<TRIPOS>ATOM
      1 C         144.2343  141.2556  162.1999 C.2     1  UNL1        0.2425
      2 O         143.3246  142.0105  161.2767 O.2     1  UNL1       -0.2733
      3 N         144.5258  139.8062  161.9461 N.am    1  UNL1       -0.3018
      4 H         145.1229  139.3107  162.5520 H       1  UNL1        0.1495
      5 C         143.9075  139.1118  160.7690 C.3     1  UNL1        0.1035
      6 C         143.7499  139.4309  159.3118 C.3     1  UNL1        0.0933
      7 N         143.0330  138.1298  159.1043 N.3     1  UNL1       -0.2711
      8 C         143.1906  137.8106  160.5615 C.3     1  UNL1        0.0933
      9 C         142.4147  137.4354  157.9273 C.3     1  UNL1        0.0578
     10 C         141.1230  137.9378  157.3537 C.3     1  UNL1        0.0187
     11 C         140.5046  137.2434  156.1767 C.3     1  UNL1        0.0331
     12 C         141.1781  136.0467  155.5731 C.3     1  UNL1        0.1140
     13 O         139.9751  136.1453  154.6825 O.3     1  UNL1       -0.3821
     14 C         142.4699  135.5443  156.1466 C.3     1  UNL1        0.0331
     15 C         143.0882  136.2387  157.3237 C.3     1  UNL1        0.0187
     16 H         139.4282  136.8968  154.9599 H       1  UNL1        0.2107
     17 C         141.4338  134.8842  154.6602 C.ar    1  UNL1        0.0518
     18 C         141.6637  134.9596  153.1798 C.ar    1  UNL1        0.1039
     19 N         141.8765  133.5643  152.6721 N.ar    1  UNL1       -0.2350
     20 C         141.7780  132.6265  153.8387 C.ar    1  UNL1        0.1343
     21 S         141.5043  133.4423  155.0674 S.2     1  UNL1       -0.0665
     22 C         144.8526  141.9499  163.3770 C.3     1  UNL1        0.1736
     23 N         144.1225  143.0712  164.0548 N.pl3   1  UNL1       -0.3252
     24 H         144.3336  144.0053  163.8264 H       1  UNL1        0.1473
     25 C         142.3417  141.5828  167.2740 C.ar    1  UNL1        0.1503
     26 C         143.3936  141.8846  166.2481 C.ar    1  UNL1        0.0440
     27 C         143.0706  142.7694  165.0808 C.ar    1  UNL1        0.0486
     28 C         141.6958  143.3525  164.9393 C.ar    1  UNL1        0.0308
     29 C         141.3729  144.2373  163.7720 C.ar    1  UNL1        0.0066
     30 C         139.9981  144.8203  163.6305 C.ar    1  UNL1        0.0716
     31 C         138.9463  144.5185  164.6565 C.ar    1  UNL1        0.0054
     32 C         139.2692  143.6337  165.8238 C.ar    1  UNL1        0.0191
     33 C         140.6440  143.0507  165.9652 C.ar    1  UNL1        0.0832
     34 N         140.9670  142.1658  167.1326 N.ar    1  UNL1       -0.2350
     35 C         139.6751  145.7052  162.4631 C.3     1  UNL1        0.4186
     36 F         139.3522  146.5901  161.2958 F       1  UNL1       -0.1659
     37 F         141.0924  146.1961  162.4432 F       1  UNL1       -0.1659
     38 F         138.2579  145.2144  162.4831 F       1  UNL1       -0.1659
     39 N         142.9877  139.8130  169.6087 N.1     1  UNL1       -0.1893
     40 C         142.6647  140.6979  168.4414 C.1     1  UNL1        0.1198
@<TRIPOS>BOND
     1    39    40    3
     2    40    25    1
     3    25    26   ar
     4    26    27   ar
     5    27    23    1
     6    23    22    1
     7    22     1    1
     8     1     2    2
     9     1     3   am
    10     3     5    1
    11     5     6    1
    12     6     7    1
    13     9     7    1
    14     9    10    1
    15    10    11    1
    16    11    12    1
    17    12    13    1
    18    12    17    1
    19    17    18   ar
    20    18    19   ar
    21    19    20   ar
    22    20    21   ar
    23    12    14    1
    24    14    15    1
    25     7     8    1
    26    27    28   ar
    27    28    29   ar
    28    29    30   ar
    29    30    35    1
    30    35    36    1
    31    35    37    1
    32    35    38    1
    33    30    31   ar
    34    31    32   ar
    35    32    33   ar
    36    33    34   ar
    37    34    25   ar
    38     8     5    1
    39    33    28   ar
    40    15     9    1
    41    21    17   ar
    42    23    24    1
    43     3     4    1
    44    13    16    1
@<TRIPOS>MOLECULE
*****
 40 44 0 0 0
SMALL
GASTEIGER

@<TRIPOS>ATOM
      1 C         142.4244  143.8811  162.2154 C.2     1  UNL1        0.2425
      2 O         143.7778  144.5275  162.2348 O.2     1  UNL1       -0.2733
      3 N         142.0228  143.0163  161.0574 N.am    1  UNL1       -0.3018
      4 H         141.1345  142.5920  161.0447 H       1  UNL1        0.1495
      5 C         142.9746  142.7980  159.9188 C.3     1  UNL1        0.1035
      6 C         144.1320  141.8782  159.6653 C.3     1  UNL1        0.0933
      7 N         144.3206  142.4894  158.3086 N.3     1  UNL1       -0.2711
      8 C         143.1632  143.4092  158.5619 C.3     1  UNL1        0.0933
      9 C         145.2724  142.2711  157.1700 C.3     1  UNL1        0.0578
     10 C         144.7795  141.6775  155.8836 C.3     1  UNL1        0.0187
     11 C         145.7313  141.4593  154.7450 C.3     1  UNL1        0.0331
     12 C         147.1760  141.8346  154.8927 C.3     1  UNL1        0.1140
     13 O         147.1861  141.3079  153.4883 O.3     1  UNL1       -0.3821
     14 C         147.6690  142.4282  156.1791 C.3     1  UNL1        0.0331
     15 C         146.7172  142.6465  157.3177 C.3     1  UNL1        0.0187
     16 H         146.2928  141.0186  153.2451 H       1  UNL1        0.2107
     17 C         148.6243  142.0270  154.5527 C.ar    1  UNL1        0.0518
     18 C         149.7909  141.6346  155.4100 C.ar    1  UNL1        0.1039
     19 N         151.0478  142.0106  154.6829 N.ar    1  UNL1       -0.2350
     20 C         150.6579  142.6354  153.3761 C.ar    1  UNL1        0.1343
     21 S         149.1601  142.6455  153.2956 S.2     1  UNL1       -0.0665
     22 C         141.4726  144.0993  163.3540 C.3     1  UNL1        0.1736
     23 N         140.6692  142.9518  163.8905 N.pl3   1  UNL1       -0.3252
     24 H         139.9272  142.5802  163.3607 H       1  UNL1        0.1473
     25 C         140.8790  142.4907  167.8266 C.ar    1  UNL1        0.1503
     26 C         140.5519  143.0721  166.4831 C.ar    1  UNL1        0.0440
     27 C         140.9963  142.3705  165.2340 C.ar    1  UNL1        0.0486
     28 C         141.7678  141.0875  165.3284 C.ar    1  UNL1        0.0308
     29 C         142.2121  140.3859  164.0793 C.ar    1  UNL1        0.0066
     30 C         142.9836  139.1030  164.1737 C.ar    1  UNL1        0.0716
     31 C         143.3106  138.5217  165.5173 C.ar    1  UNL1        0.0054
     32 C         142.8663  139.2233  166.7663 C.ar    1  UNL1        0.0191
     33 C         142.0949  140.5062  166.6719 C.ar    1  UNL1        0.0832
     34 N         141.6505  141.2078  167.9211 N.ar    1  UNL1       -0.2350
     35 C         143.4280  138.4014  162.9246 C.3     1  UNL1        0.4186
     36 F         143.8723  137.6997  161.6755 F       1  UNL1       -0.1659
     37 F         142.1933  137.5505  162.9633 F       1  UNL1       -0.1659
     38 F         144.6627  139.2522  162.8859 F       1  UNL1       -0.1659
     39 N         139.9903  143.8941  170.3248 N.1     1  UNL1       -0.1893
     40 C         140.4346  143.1924  169.0758 C.1     1  UNL1        0.1198
@<TRIPOS>BOND
     1    39    40    3
     2    40    25    1
     3    25    26   ar
     4    26    27   ar
     5    27    23    1
     6    23    22    1
     7    22     1    1
     8     1     2    2
     9     1     3   am
    10     3     5    1
    11     5     6    1
    12     6     7    1
    13     9     7    1
    14     9    10    1
    15    10    11    1
    16    11    12    1
    17    12    13    1
    18    12    17    1
    19    17    18   ar
    20    18    19   ar
    21    19    20   ar
    22    20    21   ar
    23    12    14    1
    24    14    15    1
    25     7     8    1
    26    27    28   ar
    27    28    29   ar
    28    29    30   ar
    29    30    35    1
    30    35    36    1
    31    35    37    1
    32    35    38    1
    33    30    31   ar
    34    31    32   ar
    35    32    33   ar
    36    33    34   ar
    37    34    25   ar
    38     8     5    1
    39    33    28   ar
    40    15     9    1
    41    21    17   ar
    42    23    24    1
    43     3     4    1
    44    13    16    1
@<TRIPOS>MOLECULE
*****
 40 44 0 0 0
SMALL
GASTEIGER

@<TRIPOS>ATOM
      1 C         142.2328  144.6181  162.8724 C.2     1  UNL1        0.2425
      2 O         140.8711  144.1068  163.2389 O.2     1  UNL1       -0.2733
      3 N         142.6084  144.7838  161.4296 N.am    1  UNL1       -0.3018
      4 H         143.5022  145.1194  161.1891 H       1  UNL1        0.1495
      5 C         141.6223  144.4383  160.3534 C.3     1  UNL1        0.1035
      6 C         141.5998  143.4730  159.2055 C.3     1  UNL1        0.0933
      7 N         140.2278  143.9497  158.8314 N.3     1  UNL1       -0.2711
      8 C         140.2501  144.9151  159.9793 C.3     1  UNL1        0.0933
      9 C         139.2417  143.6042  157.7552 C.3     1  UNL1        0.0578
     10 C         139.2104  144.3989  156.4835 C.3     1  UNL1        0.0187
     11 C         138.2243  144.0534  155.4072 C.3     1  UNL1        0.0331
     12 C         137.2695  142.9132  155.6028 C.3     1  UNL1        0.1140
     13 O         136.8567  143.3665  154.2339 O.3     1  UNL1       -0.3821
     14 C         137.3007  142.1184  156.8747 C.3     1  UNL1        0.0331
     15 C         138.2868  142.4640  157.9509 C.3     1  UNL1        0.0187
     16 H         137.4032  144.1214  153.9648 H       1  UNL1        0.2107
     17 C         136.1713  141.9304  155.3230 C.ar    1  UNL1        0.0518
     18 C         135.6158  140.9293  156.2922 C.ar    1  UNL1        0.1039
     19 N         134.5371  140.1564  155.5930 N.ar    1  UNL1       -0.2350
     20 C         134.4258  140.6798  154.1917 C.ar    1  UNL1        0.1343
     21 S         135.4359  141.7762  154.0248 S.2     1  UNL1       -0.0665
     22 C         143.2189  144.9636  163.9486 C.3     1  UNL1        0.1736
     23 N         144.2798  143.9775  164.3384 N.pl3   1  UNL1       -0.3252
     24 H         145.1668  144.2957  164.6236 H       1  UNL1        0.1473
     25 C         143.8688  140.2764  162.9663 C.ar    1  UNL1        0.1503
     26 C         144.1591  141.7473  163.0111 C.ar    1  UNL1        0.0440
     27 C         143.9895  142.5065  164.2936 C.ar    1  UNL1        0.0486
     28 C         143.5296  141.7948  165.5313 C.ar    1  UNL1        0.0308
     29 C         143.3600  142.5540  166.8138 C.ar    1  UNL1        0.0066
     30 C         142.9001  141.8423  168.0515 C.ar    1  UNL1        0.0716
     31 C         142.6098  140.3714  168.0067 C.ar    1  UNL1        0.0054
     32 C         142.7794  139.6121  166.7242 C.ar    1  UNL1        0.0191
     33 C         143.2393  140.3239  165.4865 C.ar    1  UNL1        0.0832
     34 N         143.4089  139.5646  164.2040 N.ar    1  UNL1       -0.2350
     35 C         142.7304  142.6015  169.3340 C.3     1  UNL1        0.4186
     36 F         142.5608  143.3607  170.6165 F       1  UNL1       -0.1659
     37 F         141.3351  142.9740  168.9290 F       1  UNL1       -0.1659
     38 F         144.1258  142.2291  169.7391 F       1  UNL1       -0.1659
     39 N         144.2080  138.7579  160.4013 N.1     1  UNL1       -0.1893
     40 C         144.0384  139.5171  161.6837 C.1     1  UNL1        0.1198
@<TRIPOS>BOND
     1    39    40    3
     2    40    25    1
     3    25    26   ar
     4    26    27   ar
     5    27    23    1
     6    23    22    1
     7    22     1    1
     8     1     2    2
     9     1     3   am
    10     3     5    1
    11     5     6    1
    12     6     7    1
    13     9     7    1
    14     9    10    1
    15    10    11    1
    16    11    12    1
    17    12    13    1
    18    12    17    1
    19    17    18   ar
    20    18    19   ar
    21    19    20   ar
    22    20    21   ar
    23    12    14    1
    24    14    15    1
    25     7     8    1
    26    27    28   ar
    27    28    29   ar
    28    29    30   ar
    29    30    35    1
    30    35    36    1
    31    35    37    1
    32    35    38    1
    33    30    31   ar
    34    31    32   ar
    35    32    33   ar
    36    33    34   ar
    37    34    25   ar
    38     8     5    1
    39    33    28   ar
    40    15     9    1
    41    21    17   ar
    42    23    24    1
    43     3     4    1
    44    13    16    1
@<TRIPOS>MOLECULE
*****
 40 44 0 0 0
SMALL
GASTEIGER

@<TRIPOS>ATOM
      1 C         143.7561  140.0399  161.9107 C.2     1  UNL1        0.2425
      2 O         144.0990  138.6329  162.3013 O.2     1  UNL1       -0.2733
      3 N         143.2265  140.3292  160.5373 N.am    1  UNL1       -0.3018
      4 H         143.0014  141.2526  160.2810 H       1  UNL1        0.1495
      5 C         143.0400  139.2113  159.5547 C.3     1  UNL1        0.1035
      6 C         143.1664  139.0754  158.0662 C.3     1  UNL1        0.0933
      7 N         142.7762  137.6305  158.1650 N.3     1  UNL1       -0.2711
      8 C         142.6498  137.7663  159.6534 C.3     1  UNL1        0.0933
      9 C         142.5897  136.5126  157.1823 C.3     1  UNL1        0.0578
     10 C         141.4390  136.5437  156.2205 C.3     1  UNL1        0.0187
     11 C         141.2525  135.4259  155.2379 C.3     1  UNL1        0.0331
     12 C         142.2166  134.2770  155.2169 C.3     1  UNL1        0.1140
     13 O         141.2889  133.8585  154.1150 O.3     1  UNL1       -0.3821
     14 C         143.3673  134.2459  156.1787 C.3     1  UNL1        0.0331
     15 C         143.5539  135.3637  157.1614 C.3     1  UNL1        0.0187
     16 H         140.5918  134.5245  154.0089 H       1  UNL1        0.2107
     17 C         142.8586  132.9827  154.8133 C.ar    1  UNL1        0.0518
     18 C         142.6786  132.2812  153.4996 C.ar    1  UNL1        0.1039
     19 N         143.5020  131.0278  153.5269 N.ar    1  UNL1       -0.2350
     20 C         144.1909  130.9546  154.8573 C.ar    1  UNL1        0.1343
     21 S         143.7932  132.1628  155.6524 S.2     1  UNL1       -0.0665
     22 C         143.9426  141.1577  162.8934 C.3     1  UNL1        0.1736
     23 N         142.7485  141.8804  163.4428 N.pl3   1  UNL1       -0.3252
     24 H         142.2777  142.5448  162.8895 H       1  UNL1        0.1473
     25 C         142.5824  141.7899  167.4069 C.ar    1  UNL1        0.1503
     26 C         143.0592  142.0796  166.0145 C.ar    1  UNL1        0.0440
     27 C         142.2717  141.5907  164.8352 C.ar    1  UNL1        0.0486
     28 C         141.0074  140.8120  165.0482 C.ar    1  UNL1        0.0308
     29 C         140.2200  140.3231  163.8689 C.ar    1  UNL1        0.0066
     30 C         138.9558  139.5445  164.0820 C.ar    1  UNL1        0.0716
     31 C         138.4790  139.2548  165.4744 C.ar    1  UNL1        0.0054
     32 C         139.2664  139.7437  166.6537 C.ar    1  UNL1        0.0191
     33 C         140.5307  140.5223  166.4406 C.ar    1  UNL1        0.0832
     34 N         141.3182  141.0113  167.6200 N.ar    1  UNL1       -0.2350
     35 C         138.1682  139.0555  162.9027 C.3     1  UNL1        0.4186
     36 F         137.3807  138.5666  161.7234 F       1  UNL1       -0.1659
     37 F         137.4041  140.3460  162.8779 F       1  UNL1       -0.1659
     38 F         138.9324  137.7650  162.9274 F       1  UNL1       -0.1659
     39 N         144.1574  142.7679  169.7655 N.1     1  UNL1       -0.1893
     40 C         143.3699  142.2789  168.5863 C.1     1  UNL1        0.1198
@<TRIPOS>BOND
     1    39    40    3
     2    40    25    1
     3    25    26   ar
     4    26    27   ar
     5    27    23    1
     6    23    22    1
     7    22     1    1
     8     1     2    2
     9     1     3   am
    10     3     5    1
    11     5     6    1
    12     6     7    1
    13     9     7    1
    14     9    10    1
    15    10    11    1
    16    11    12    1
    17    12    13    1
    18    12    17    1
    19    17    18   ar
    20    18    19   ar
    21    19    20   ar
    22    20    21   ar
    23    12    14    1
    24    14    15    1
    25     7     8    1
    26    27    28   ar
    27    28    29   ar
    28    29    30   ar
    29    30    35    1
    30    35    36    1
    31    35    37    1
    32    35    38    1
    33    30    31   ar
    34    31    32   ar
    35    32    33   ar
    36    33    34   ar
    37    34    25   ar
    38     8     5    1
    39    33    28   ar
    40    15     9    1
    41    21    17   ar
    42    23    24    1
    43     3     4    1
    44    13    16    1
@<TRIPOS>MOLECULE
*****
 40 44 0 0 0
SMALL
GASTEIGER

@<TRIPOS>ATOM
      1 C         140.9448  145.1879  159.4662 C.2     1  UNL1        0.2425
      2 O         139.6088  145.0009  160.1219 O.2     1  UNL1       -0.2733
      3 N         142.2012  144.8564  160.2156 N.am    1  UNL1       -0.3018
      4 H         143.0781  144.9792  159.7852 H       1  UNL1        0.1495
      5 C         142.1216  144.3379  161.6209 C.3     1  UNL1        0.1035
      6 C         141.9943  142.9797  162.2447 C.3     1  UNL1        0.0933
      7 N         142.0089  143.6045  163.6082 N.3     1  UNL1       -0.2711
      8 C         142.1362  144.9627  162.9845 C.3     1  UNL1        0.0933
      9 C         141.9292  143.0859  165.0134 C.3     1  UNL1        0.0578
     10 C         143.1829  142.7120  165.7471 C.3     1  UNL1        0.0187
     11 C         143.1033  142.1934  167.1524 C.3     1  UNL1        0.0331
     12 C         141.7699  142.0488  167.8239 C.3     1  UNL1        0.1140
     13 O         142.6689  141.5664  168.9235 O.3     1  UNL1       -0.3821
     14 C         140.5160  142.4227  167.0903 C.3     1  UNL1        0.0331
     15 C         140.5957  142.9413  165.6850 C.3     1  UNL1        0.0187
     16 H         143.5916  141.6038  168.6266 H       1  UNL1        0.2107
     17 C         140.7487  141.7366  168.8774 C.ar    1  UNL1        0.0518
     18 C         140.2104  142.6974  169.8959 C.ar    1  UNL1        0.1039
     19 N         139.2156  141.9635  170.7453 N.ar    1  UNL1       -0.2350
     20 C         139.1389  140.5491  170.2518 C.ar    1  UNL1        0.1343
     21 S         140.0864  140.4089  169.0974 S.2     1  UNL1       -0.0665
     22 C         141.0245  145.7065  158.0609 C.3     1  UNL1        0.1736
     23 N         141.5968  144.8447  156.9748 N.pl3   1  UNL1       -0.3252
     24 H         142.1956  145.2373  156.2990 H       1  UNL1        0.1473
     25 C         139.4818  141.4888  156.8557 C.ar    1  UNL1        0.1503
     26 C         139.8218  142.9487  156.9123 C.ar    1  UNL1        0.0440
     27 C         141.2569  143.3849  156.9182 C.ar    1  UNL1        0.0486
     28 C         142.3522  142.3612  156.8674 C.ar    1  UNL1        0.0308
     29 C         143.7873  142.7974  156.8732 C.ar    1  UNL1        0.0066
     30 C         144.8825  141.7737  156.8224 C.ar    1  UNL1        0.0716
     31 C         144.5425  140.3138  156.7658 C.ar    1  UNL1        0.0054
     32 C         143.1074  139.8776  156.7600 C.ar    1  UNL1        0.0191
     33 C         142.0122  140.9013  156.8108 C.ar    1  UNL1        0.0832
     34 N         140.5770  140.4651  156.8049 N.ar    1  UNL1       -0.2350
     35 C         146.3177  142.2099  156.8282 C.3     1  UNL1        0.4186
     36 F         147.7528  142.6461  156.8341 F       1  UNL1       -0.1659
     37 F         146.0918  142.9357  158.1214 F       1  UNL1       -0.1659
     38 F         146.5436  141.4842  155.5351 F       1  UNL1       -0.1659
     39 N         136.6115  140.6164  156.8441 N.1     1  UNL1       -0.1893
     40 C         138.0466  141.0526  156.8499 C.1     1  UNL1        0.1198
@<TRIPOS>BOND
     1    39    40    3
     2    40    25    1
     3    25    26   ar
     4    26    27   ar
     5    27    23    1
     6    23    22    1
     7    22     1    1
     8     1     2    2
     9     1     3   am
    10     3     5    1
    11     5     6    1
    12     6     7    1
    13     9     7    1
    14     9    10    1
    15    10    11    1
    16    11    12    1
    17    12    13    1
    18    12    17    1
    19    17    18   ar
    20    18    19   ar
    21    19    20   ar
    22    20    21   ar
    23    12    14    1
    24    14    15    1
    25     7     8    1
    26    27    28   ar
    27    28    29   ar
    28    29    30   ar
    29    30    35    1
    30    35    36    1
    31    35    37    1
    32    35    38    1
    33    30    31   ar
    34    31    32   ar
    35    32    33   ar
    36    33    34   ar
    37    34    25   ar
    38     8     5    1
    39    33    28   ar
    40    15     9    1
    41    21    17   ar
    42    23    24    1
    43     3     4    1
    44    13    16    1
@<TRIPOS>MOLECULE
*****
 40 44 0 0 0
SMALL
GASTEIGER

@<TRIPOS>ATOM
      1 C         139.8124  138.3077  163.6773 C.2     1  UNL1        0.2425
      2 O         141.2970  138.3447  163.8884 O.2     1  UNL1       -0.2733
      3 N         139.2343  138.6880  162.3464 N.am    1  UNL1       -0.3018
      4 H         138.2599  138.6637  162.2079 H       1  UNL1        0.1495
      5 C         140.1408  139.1053  161.2266 C.3     1  UNL1        0.1035
      6 C         140.4535  140.4031  160.5425 C.3     1  UNL1        0.0933
      7 N         141.4229  139.6955  159.6430 N.3     1  UNL1       -0.2711
      8 C         141.1104  138.3976  160.3270 C.3     1  UNL1        0.0933
      9 C         142.3295  140.1128  158.5232 C.3     1  UNL1        0.0578
     10 C         141.8277  140.1055  157.1096 C.3     1  UNL1        0.0187
     11 C         142.7343  140.5229  155.9898 C.3     1  UNL1        0.0331
     12 C         144.1426  140.9475  156.2835 C.3     1  UNL1        0.1140
     13 O         144.1283  141.1069  154.7921 O.3     1  UNL1       -0.3821
     14 C         144.6444  140.9548  157.6971 C.3     1  UNL1        0.0331
     15 C         143.7379  140.5374  158.8170 C.3     1  UNL1        0.0187
     16 H         143.2549  140.8612  154.4491 H       1  UNL1        0.2107
     17 C         145.5460  141.4274  156.0593 C.ar    1  UNL1        0.0518
     18 C         146.3403  142.2954  156.9898 C.ar    1  UNL1        0.1039
     19 N         147.6866  142.5281  156.3709 N.ar    1  UNL1       -0.2350
     20 C         147.7244  141.8040  155.0577 C.ar    1  UNL1        0.1343
     21 S         146.4014  141.1237  154.8652 S.2     1  UNL1       -0.0665
     22 C         138.9058  137.8904  164.7971 C.3     1  UNL1        0.1736
     23 N         138.3344  138.9223  165.7237 N.pl3   1  UNL1       -0.3252
     24 H         137.6212  138.6752  166.3559 H       1  UNL1        0.1473
     25 C         138.7729  142.7293  164.6924 C.ar    1  UNL1        0.1503
     26 C         138.2577  141.3211  164.7289 C.ar    1  UNL1        0.0440
     27 C         138.8496  140.3305  165.6872 C.ar    1  UNL1        0.0486
     28 C         139.9567  140.7483  166.6091 C.ar    1  UNL1        0.0308
     29 C         140.5486  139.7577  167.5675 C.ar    1  UNL1        0.0066
     30 C         141.6556  140.1755  168.4893 C.ar    1  UNL1        0.0716
     31 C         142.1708  141.5838  168.4528 C.ar    1  UNL1        0.0054
     32 C         141.5789  142.5743  167.4945 C.ar    1  UNL1        0.0191
     33 C         140.4719  142.1566  166.5726 C.ar    1  UNL1        0.0832
     34 N         139.8799  143.1471  165.6142 N.ar    1  UNL1       -0.2350
     35 C         142.2476  139.1849  169.4478 C.3     1  UNL1        0.4186
     36 F         142.8395  138.1944  170.4061 F       1  UNL1       -0.1659
     37 F         143.0201  138.5597  168.3243 F       1  UNL1       -0.1659
     38 F         141.4751  139.8102  170.5712 F       1  UNL1       -0.1659
     39 N         137.5890  144.7104  162.7756 N.1     1  UNL1       -0.1893
     40 C         138.1809  143.7199  163.7340 C.1     1  UNL1        0.1198
@<TRIPOS>BOND
     1    39    40    3
     2    40    25    1
     3    25    26   ar
     4    26    27   ar
     5    27    23    1
     6    23    22    1
     7    22     1    1
     8     1     2    2
     9     1     3   am
    10     3     5    1
    11     5     6    1
    12     6     7    1
    13     9     7    1
    14     9    10    1
    15    10    11    1
    16    11    12    1
    17    12    13    1
    18    12    17    1
    19    17    18   ar
    20    18    19   ar
    21    19    20   ar
    22    20    21   ar
    23    12    14    1
    24    14    15    1
    25     7     8    1
    26    27    28   ar
    27    28    29   ar
    28    29    30   ar
    29    30    35    1
    30    35    36    1
    31    35    37    1
    32    35    38    1
    33    30    31   ar
    34    31    32   ar
    35    32    33   ar
    36    33    34   ar
    37    34    25   ar
    38     8     5    1
    39    33    28   ar
    40    15     9    1
    41    21    17   ar
    42    23    24    1
    43     3     4    1
    44    13    16    1
