@<TRIPOS>MOLECULE
*****
 36 41 0 0 0
SMALL
GASTEIGER

@<TRIPOS>ATOM
      1 C         142.5239  136.7355  157.6152 C.3     1  UNL1        0.1161
      2 C         143.2235  135.4259  157.4018 C.3     1  UNL1        0.0510
      3 C         142.8608  134.5641  156.2289 C.2     1  UNL1       -0.0044
      4 C         141.7984  135.0120  155.2693 C.2     1  UNL1        0.0689
      5 N         141.6551  133.9581  154.2116 N.2     1  UNL1       -0.2526
      6 C         142.6289  132.8589  154.5175 C.2     1  UNL1        0.0627
      7 C         142.9334  131.5654  153.8218 C.3     1  UNL1        0.0717
      8 C         143.9830  130.6464  154.3729 C.2     1  UNL1       -0.0198
      9 C         144.7282  131.0210  155.6197 C.2     1  UNL1       -0.0042
     10 C         144.4237  132.3145  156.3154 C.2     1  UNL1        0.0006
     11 C         143.3741  133.2335  155.7643 C.2     1  UNL1        0.0111
     12 C         141.0988  136.3216  155.4827 C.3     1  UNL1        0.0949
     13 N         141.4615  137.1833  156.6556 N.3     1  UNL1       -0.2887
     14 H         140.6089  137.3136  157.2001 H       1  UNL1        0.1239
     15 C         143.1668  138.4057  161.0594 C.ar    1  UNL1        0.0769
     16 C         143.7228  139.4408  160.1270 C.ar    1  UNL1        0.1171
     17 N         143.5497  138.9412  158.7233 N.ar    1  UNL1       -0.2282
     18 C         142.8866  137.5973  158.7882 C.ar    1  UNL1        0.1318
     19 N         142.6500  137.2663  160.2319 N.ar    1  UNL1       -0.3397
     20 H         142.2293  136.4454  160.5760 H       1  UNL1        0.1671
     21 C         143.0666  138.6718  165.5504 C.ar    1  UNL1        0.0714
     22 C         141.9470  137.9980  164.8138 C.ar    1  UNL1        0.0039
     23 C         141.9804  137.9094  163.3169 C.ar    1  UNL1        0.0014
     24 C         143.1334  138.4944  162.5564 C.ar    1  UNL1        0.0171
     25 C         144.2530  139.1681  163.2930 C.ar    1  UNL1        0.0014
     26 C         144.2196  139.2568  164.7899 C.ar    1  UNL1        0.0039
     27 F         142.9998  138.8491  168.5444 F       1  UNL1       -0.1659
     28 C         143.0332  138.7605  167.0474 C.3     1  UNL1        0.4186
     29 F         144.0718  137.6818  167.1344 F       1  UNL1       -0.1659
     30 F         141.9945  139.8391  166.9604 F       1  UNL1       -0.1659
     31 C         140.0364  136.7694  154.5231 C.3     1  UNL1        0.0252
     32 C         138.6904  137.1875  155.0361 C.3     1  UNL1        0.0339
     33 C         137.6280  137.6353  154.0764 C.3     1  UNL1        0.1422
     34 O         137.9117  137.6650  152.6038 O.3     1  UNL1       -0.3538
     35 C         139.2579  137.2469  152.0908 C.3     1  UNL1        0.1422
     36 C         140.3201  136.7991  153.0504 C.3     1  UNL1        0.0339
@<TRIPOS>BOND
     1    27    28    1
     2    28    29    1
     3    28    30    1
     4    28    21    1
     5    21    22   ar
     6    22    23   ar
     7    23    24   ar
     8    24    15    1
     9    15    16   ar
    10    16    17   ar
    11    17    18   ar
    12     1    18    1
    13     1     2    1
    14     2     3    1
    15     3     4    2
    16     4     5    1
    17     5     6    2
    18     6     7    1
    19     7     8    1
    20     8     9    2
    21     9    10    1
    22    10    11    2
    23     4    12    1
    24    12    31    1
    25    31    32    1
    26    32    33    1
    27    33    34    1
    28    34    35    1
    29    35    36    1
    30    12    13    1
    31    18    19   ar
    32    24    25   ar
    33    25    26   ar
    34    26    21   ar
    35    19    15   ar
    36    13     1    1
    37    11     3    1
    38    36    31    1
    39    11     6    1
    40    13    14    1
    41    19    20    1
@<TRIPOS>MOLECULE
*****
 36 41 0 0 0
SMALL
GASTEIGER

@<TRIPOS>ATOM
      1 C         140.4786  144.0299  160.1844 C.3     1  UNL1        0.1161
      2 C         139.9694  145.1077  159.2738 C.3     1  UNL1        0.0510
      3 C         140.4740  145.1991  157.8642 C.2     1  UNL1       -0.0044
      4 C         141.4880  144.2127  157.3652 C.2     1  UNL1        0.0689
      5 N         141.7988  144.5499  155.9370 N.2     1  UNL1       -0.2526
      6 C         140.9769  145.7446  155.5534 C.2     1  UNL1        0.0627
      7 C         140.8683  146.5190  154.2733 C.3     1  UNL1        0.0717
      8 C         139.9409  147.6946  154.1844 C.2     1  UNL1       -0.0198
      9 C         139.1222  148.0958  155.3755 C.2     1  UNL1       -0.0042
     10 C         139.2308  147.3214  156.6555 C.2     1  UNL1        0.0006
     11 C         140.1582  146.1458  156.7444 C.2     1  UNL1        0.0111
     12 C         141.9973  143.1350  158.2758 C.3     1  UNL1        0.0949
     13 N         141.4926  143.0436  159.6854 N.3     1  UNL1       -0.2887
     14 H         142.3063  143.1237  160.2952 H       1  UNL1        0.1239
     15 C         139.6587  143.2206  163.8909 C.ar    1  UNL1        0.0769
     16 C         138.7359  144.3752  163.6353 C.ar    1  UNL1        0.1171
     17 N         138.9307  144.8189  162.2158 N.ar    1  UNL1       -0.2282
     18 C         139.9739  143.9385  161.5940 C.ar    1  UNL1        0.1318
     19 N         140.4239  142.9508  162.6292 N.ar    1  UNL1       -0.3397
     20 H         141.1023  142.2486  162.5028 H       1  UNL1        0.1671
     21 C         140.0612  140.9627  167.7626 C.ar    1  UNL1        0.0714
     22 C         139.4291  140.3040  166.5724 C.ar    1  UNL1        0.0039
     23 C         139.2950  141.0566  165.2819 C.ar    1  UNL1        0.0014
     24 C         139.7929  142.4680  165.1815 C.ar    1  UNL1        0.0171
     25 C         140.4250  143.1267  166.3716 C.ar    1  UNL1        0.0014
     26 C         140.5591  142.3741  167.6622 C.ar    1  UNL1        0.0039
     27 F         140.3295  139.4576  170.3438 F       1  UNL1       -0.1659
     28 C         140.1953  140.2101  169.0532 C.3     1  UNL1        0.4186
     29 F         138.8510  140.7145  169.4870 F       1  UNL1       -0.1659
     30 F         141.5397  139.7057  168.6193 F       1  UNL1       -0.1659
     31 C         143.0112  142.1486  157.7768 C.3     1  UNL1        0.0252
     32 C         142.5872  140.7571  157.4112 C.3     1  UNL1        0.0339
     33 C         143.6012  139.7707  156.9122 C.3     1  UNL1        0.1422
     34 O         145.0392  140.1760  156.7788 O.3     1  UNL1       -0.3538
     35 C         145.4633  141.5676  157.1444 C.3     1  UNL1        0.1422
     36 C         144.4493  142.5539  157.6434 C.3     1  UNL1        0.0339
@<TRIPOS>BOND
     1    27    28    1
     2    28    29    1
     3    28    30    1
     4    28    21    1
     5    21    22   ar
     6    22    23   ar
     7    23    24   ar
     8    24    15    1
     9    15    16   ar
    10    16    17   ar
    11    17    18   ar
    12     1    18    1
    13     1     2    1
    14     2     3    1
    15     3     4    2
    16     4     5    1
    17     5     6    2
    18     6     7    1
    19     7     8    1
    20     8     9    2
    21     9    10    1
    22    10    11    2
    23     4    12    1
    24    12    31    1
    25    31    32    1
    26    32    33    1
    27    33    34    1
    28    34    35    1
    29    35    36    1
    30    12    13    1
    31    18    19   ar
    32    24    25   ar
    33    25    26   ar
    34    26    21   ar
    35    19    15   ar
    36    13     1    1
    37    11     3    1
    38    36    31    1
    39    11     6    1
    40    13    14    1
    41    19    20    1
@<TRIPOS>MOLECULE
*****
 36 41 0 0 0
SMALL
GASTEIGER

@<TRIPOS>ATOM
      1 C         143.5186  142.0987  160.0725 C.3     1  UNL1        0.1161
      2 C         144.7179  142.3383  159.2040 C.3     1  UNL1        0.0510
      3 C         144.7552  141.7894  157.8086 C.2     1  UNL1       -0.0044
      4 C         143.5931  141.0008  157.2816 C.2     1  UNL1        0.0689
      5 N         143.9130  140.5873  155.8757 N.2     1  UNL1       -0.2526
      6 C         145.2728  141.1203  155.5337 C.2     1  UNL1        0.0627
      7 C         146.1042  141.0251  154.2889 C.3     1  UNL1        0.0717
      8 C         147.4562  141.6729  154.2387 C.2     1  UNL1       -0.0198
      9 C         147.9767  142.4158  155.4334 C.2     1  UNL1       -0.0042
     10 C         147.1452  142.5110  156.6782 C.2     1  UNL1        0.0006
     11 C         145.7933  141.8633  156.7283 C.2     1  UNL1        0.0111
     12 C         142.3937  140.7612  158.1501 C.3     1  UNL1        0.0949
     13 N         142.3565  141.3101  159.5455 N.3     1  UNL1       -0.2887
     14 H         142.2323  140.5146  160.1716 H       1  UNL1        0.1239
     15 C         142.8789  143.0083  163.7912 C.ar    1  UNL1        0.0769
     16 C         143.9692  143.9765  163.4394 C.ar    1  UNL1        0.1171
     17 N         144.3416  143.7536  162.0036 N.ar    1  UNL1       -0.2282
     18 C         143.4814  142.6477  161.4680 C.ar    1  UNL1        0.1318
     19 N         142.5774  142.1870  162.5727 N.ar    1  UNL1       -0.3397
     20 H         141.9043  141.4713  162.5092 H       1  UNL1        0.1671
     21 C         140.8659  142.6332  167.7983 C.ar    1  UNL1        0.0714
     22 C         142.3264  142.3207  167.6606 C.ar    1  UNL1        0.0039
     23 C         142.9974  142.4457  166.3249 C.ar    1  UNL1        0.0014
     24 C         142.2078  142.8833  165.1269 C.ar    1  UNL1        0.0171
     25 C         140.7473  143.1958  165.2646 C.ar    1  UNL1        0.0014
     26 C         140.0763  143.0708  166.6003 C.ar    1  UNL1        0.0039
     27 F         139.5238  142.3831  170.4697 F       1  UNL1       -0.1659
     28 C         140.1948  142.5082  169.1340 C.3     1  UNL1        0.4186
     29 F         139.9069  141.0630  168.8541 F       1  UNL1       -0.1659
     30 F         140.4827  143.9534  169.4140 F       1  UNL1       -0.1659
     31 C         141.2316  139.9726  157.6231 C.3     1  UNL1        0.0252
     32 C         139.9693  140.6755  157.2204 C.3     1  UNL1        0.0339
     33 C         138.8071  139.8868  156.6934 C.3     1  UNL1        0.1422
     34 O         138.9075  138.3954  156.5692 O.3     1  UNL1       -0.3538
     35 C         140.1700  137.6925  156.9718 C.3     1  UNL1        0.1422
     36 C         141.3320  138.4811  157.4988 C.3     1  UNL1        0.0339
@<TRIPOS>BOND
     1    27    28    1
     2    28    29    1
     3    28    30    1
     4    28    21    1
     5    21    22   ar
     6    22    23   ar
     7    23    24   ar
     8    24    15    1
     9    15    16   ar
    10    16    17   ar
    11    17    18   ar
    12     1    18    1
    13     1     2    1
    14     2     3    1
    15     3     4    2
    16     4     5    1
    17     5     6    2
    18     6     7    1
    19     7     8    1
    20     8     9    2
    21     9    10    1
    22    10    11    2
    23     4    12    1
    24    12    31    1
    25    31    32    1
    26    32    33    1
    27    33    34    1
    28    34    35    1
    29    35    36    1
    30    12    13    1
    31    18    19   ar
    32    24    25   ar
    33    25    26   ar
    34    26    21   ar
    35    19    15   ar
    36    13     1    1
    37    11     3    1
    38    36    31    1
    39    11     6    1
    40    13    14    1
    41    19    20    1
@<TRIPOS>MOLECULE
*****
 36 41 0 0 0
SMALL
GASTEIGER

@<TRIPOS>ATOM
      1 C         142.1265  139.9463  160.5980 C.3     1  UNL1        0.1161
      2 C         142.5836  139.3036  161.8739 C.3     1  UNL1        0.0510
      3 C         142.2526  139.9363  163.1930 C.2     1  UNL1       -0.0044
      4 C         141.4644  141.2118  163.2362 C.2     1  UNL1        0.0689
      5 N         141.2902  141.6005  164.6745 N.2     1  UNL1       -0.2526
      6 C         141.9706  140.5652  165.5202 C.2     1  UNL1        0.0627
      7 C         142.1254  140.4261  167.0056 C.3     1  UNL1        0.0717
      8 C         142.8750  139.2586  167.5755 C.2     1  UNL1       -0.0198
      9 C         143.4699  138.2300  166.6599 C.2     1  UNL1       -0.0042
     10 C         143.3151  138.3691  165.1744 C.2     1  UNL1        0.0006
     11 C         142.5654  139.5366  164.6046 C.2     1  UNL1        0.0111
     12 C         141.0073  141.8546  161.9603 C.3     1  UNL1        0.0949
     13 N         141.3383  141.2218  160.6412 N.3     1  UNL1       -0.2887
     14 H         141.8663  141.9124  160.1076 H       1  UNL1        0.1239
     15 C         142.8400  137.6613  157.5427 C.ar    1  UNL1        0.0769
     16 C         143.0938  139.0180  156.9555 C.ar    1  UNL1        0.1171
     17 N         142.8573  140.0392  158.0285 N.ar    1  UNL1       -0.2282
     18 C         142.4575  139.3135  159.2789 C.ar    1  UNL1        0.1318
     19 N         142.4468  137.8439  158.9787 N.ar    1  UNL1       -0.3397
     20 H         142.2213  137.1254  159.6128 H       1  UNL1        0.1671
     21 C         143.1960  133.7330  155.3767 C.ar    1  UNL1        0.0714
     22 C         142.8609  134.9813  154.6157 C.ar    1  UNL1        0.0039
     23 C         142.7423  136.2908  155.3377 C.ar    1  UNL1        0.0014
     24 C         142.9587  136.3518  156.8207 C.ar    1  UNL1        0.0171
     25 C         143.2938  135.1034  157.5818 C.ar    1  UNL1        0.0014
     26 C         143.4124  133.7940  156.8598 C.ar    1  UNL1        0.0039
     27 F         143.4333  131.1141  153.9328 F       1  UNL1       -0.1659
     28 C         143.3147  132.4235  154.6547 C.3     1  UNL1        0.4186
     29 F         142.1739  132.8125  153.7618 F       1  UNL1       -0.1659
     30 F         144.4554  132.0345  155.5476 F       1  UNL1       -0.1659
     31 C         140.2191  143.1301  162.0035 C.3     1  UNL1        0.0252
     32 C         138.8679  143.1551  162.6541 C.3     1  UNL1        0.0339
     33 C         138.0797  144.4307  162.6973 C.3     1  UNL1        0.1422
     34 O         138.6429  145.6812  162.0898 O.3     1  UNL1       -0.3538
     35 C         139.9942  145.6562  161.4391 C.3     1  UNL1        0.1422
     36 C         140.7823  144.3807  161.3960 C.3     1  UNL1        0.0339
@<TRIPOS>BOND
     1    27    28    1
     2    28    29    1
     3    28    30    1
     4    28    21    1
     5    21    22   ar
     6    22    23   ar
     7    23    24   ar
     8    24    15    1
     9    15    16   ar
    10    16    17   ar
    11    17    18   ar
    12     1    18    1
    13     1     2    1
    14     2     3    1
    15     3     4    2
    16     4     5    1
    17     5     6    2
    18     6     7    1
    19     7     8    1
    20     8     9    2
    21     9    10    1
    22    10    11    2
    23     4    12    1
    24    12    31    1
    25    31    32    1
    26    32    33    1
    27    33    34    1
    28    34    35    1
    29    35    36    1
    30    12    13    1
    31    18    19   ar
    32    24    25   ar
    33    25    26   ar
    34    26    21   ar
    35    19    15   ar
    36    13     1    1
    37    11     3    1
    38    36    31    1
    39    11     6    1
    40    13    14    1
    41    19    20    1
@<TRIPOS>MOLECULE
*****
 36 41 0 0 0
SMALL
GASTEIGER

@<TRIPOS>ATOM
      1 C         143.3489  139.5877  159.0260 C.3     1  UNL1        0.1161
      2 C         144.2982  140.5560  158.3845 C.3     1  UNL1        0.0510
      3 C         144.6801  140.3889  156.9436 C.2     1  UNL1       -0.0044
      4 C         144.1127  139.2535  156.1442 C.2     1  UNL1        0.0689
      5 N         144.6683  139.3426  154.7537 N.2     1  UNL1       -0.2526
      6 C         145.5790  140.5330  154.6938 C.2     1  UNL1        0.0627
      7 C         146.4026  141.1116  153.5817 C.3     1  UNL1        0.0717
      8 C         147.2335  142.3369  153.8230 C.2     1  UNL1       -0.0198
      9 C         147.2407  142.9836  155.1765 C.2     1  UNL1       -0.0042
     10 C         146.4171  142.4049  156.2886 C.2     1  UNL1        0.0006
     11 C         145.5863  141.1796  156.0473 C.2     1  UNL1        0.0111
     12 C         143.1635  138.2853  156.7857 C.3     1  UNL1        0.0949
     13 N         142.7816  138.4524  158.2266 N.3     1  UNL1       -0.2887
     14 H         143.0510  137.5924  158.7043 H       1  UNL1        0.1239
     15 C         141.7803  139.5740  162.5763 C.ar    1  UNL1        0.0769
     16 C         142.9785  140.4500  162.7923 C.ar    1  UNL1        0.1171
     17 N         143.7120  140.5618  161.4886 N.ar    1  UNL1       -0.2282
     18 C         142.9671  139.7549  160.4670 C.ar    1  UNL1        0.1318
     19 N         141.7732  139.1444  161.1391 N.ar    1  UNL1       -0.3397
     20 H         141.1026  138.5636  160.7120 H       1  UNL1        0.1671
     21 C         138.7403  138.4349  165.6925 C.ar    1  UNL1        0.0714
     22 C         139.2266  139.8509  165.6016 C.ar    1  UNL1        0.0039
     23 C         140.2399  140.2306  164.5628 C.ar    1  UNL1        0.0014
     24 C         140.7669  139.1943  163.6151 C.ar    1  UNL1        0.0171
     25 C         140.2806  137.7782  163.7060 C.ar    1  UNL1        0.0014
     26 C         139.2673  137.3986  164.7448 C.ar    1  UNL1        0.0039
     27 F         136.7137  137.6754  167.7700 F       1  UNL1       -0.1659
     28 C         137.7270  138.0552  166.7313 C.3     1  UNL1        0.4186
     29 F         137.7286  136.6459  166.2177 F       1  UNL1       -0.1659
     30 F         137.7253  139.4644  167.2450 F       1  UNL1       -0.1659
     31 C         142.5961  137.1499  155.9863 C.3     1  UNL1        0.0252
     32 C         143.5014  136.0732  155.4658 C.3     1  UNL1        0.0339
     33 C         142.9339  134.9378  154.6664 C.3     1  UNL1        0.1422
     34 O         141.4613  134.8793  154.3874 O.3     1  UNL1       -0.3538
     35 C         140.5560  135.9561  154.9079 C.3     1  UNL1        0.1422
     36 C         141.1234  137.0914  155.7073 C.3     1  UNL1        0.0339
@<TRIPOS>BOND
     1    27    28    1
     2    28    29    1
     3    28    30    1
     4    28    21    1
     5    21    22   ar
     6    22    23   ar
     7    23    24   ar
     8    24    15    1
     9    15    16   ar
    10    16    17   ar
    11    17    18   ar
    12     1    18    1
    13     1     2    1
    14     2     3    1
    15     3     4    2
    16     4     5    1
    17     5     6    2
    18     6     7    1
    19     7     8    1
    20     8     9    2
    21     9    10    1
    22    10    11    2
    23     4    12    1
    24    12    31    1
    25    31    32    1
    26    32    33    1
    27    33    34    1
    28    34    35    1
    29    35    36    1
    30    12    13    1
    31    18    19   ar
    32    24    25   ar
    33    25    26   ar
    34    26    21   ar
    35    19    15   ar
    36    13     1    1
    37    11     3    1
    38    36    31    1
    39    11     6    1
    40    13    14    1
    41    19    20    1
@<TRIPOS>MOLECULE
*****
 36 41 0 0 0
SMALL
GASTEIGER

@<TRIPOS>ATOM
      1 C         143.1666  142.8502  157.4292 C.3     1  UNL1        0.1161
      2 C         143.2721  143.1887  158.8867 C.3     1  UNL1        0.0510
      3 C         142.1057  143.8063  159.5996 C.2     1  UNL1       -0.0044
      4 C         140.8339  144.0854  158.8549 C.2     1  UNL1        0.0689
      5 N         139.8584  144.6967  159.8166 N.2     1  UNL1       -0.2526
      6 C         140.5273  144.7953  161.1555 C.2     1  UNL1        0.0627
      7 C         140.0512  145.3151  162.4795 C.3     1  UNL1        0.0717
      8 C         140.9639  145.2845  163.6694 C.2     1  UNL1       -0.0198
      9 C         142.3529  144.7342  163.5353 C.2     1  UNL1       -0.0042
     10 C         142.8290  144.2144  162.2113 C.2     1  UNL1        0.0006
     11 C         141.9163  144.2450  161.0214 C.2     1  UNL1        0.0111
     12 C         140.7284  143.7470  157.3974 C.3     1  UNL1        0.0949
     13 N         141.8947  143.1294  156.6845 N.3     1  UNL1       -0.2887
     14 H         142.1349  143.7552  155.9158 H       1  UNL1        0.1239
     15 C         146.4547  141.9555  155.5709 C.ar    1  UNL1        0.0769
     16 C         145.8009  140.6089  155.6679 C.ar    1  UNL1        0.1171
     17 N         144.4896  140.7802  156.3758 N.ar    1  UNL1       -0.2282
     18 C         144.3330  142.2325  156.7163 C.ar    1  UNL1        0.1318
     19 N         145.5474  142.9589  156.2189 N.ar    1  UNL1       -0.3397
     20 H         145.7189  143.9247  156.3030 H       1  UNL1        0.1671
     21 C         150.4383  142.8311  153.6698 C.ar    1  UNL1        0.0714
     22 C         149.1945  143.4784  153.1370 C.ar    1  UNL1        0.0039
     23 C         147.8667  143.1865  153.7707 C.ar    1  UNL1        0.0014
     24 C         147.7826  142.2473  154.9372 C.ar    1  UNL1        0.0171
     25 C         149.0264  141.6000  155.4701 C.ar    1  UNL1        0.0014
     26 C         150.3542  141.8919  154.8364 C.ar    1  UNL1        0.0039
     27 F         153.0941  143.4148  152.4025 F       1  UNL1       -0.1659
     28 C         151.7662  143.1230  153.0361 C.3     1  UNL1        0.4186
     29 F         151.9886  141.6546  152.8260 F       1  UNL1       -0.1659
     30 F         151.5437  144.5914  153.2462 F       1  UNL1       -0.1659
     31 C         139.4566  144.0261  156.6527 C.3     1  UNL1        0.0252
     32 C         138.3340  143.0320  156.6867 C.3     1  UNL1        0.0339
     33 C         137.0621  143.3112  155.9420 C.3     1  UNL1        0.1422
     34 O         136.9130  144.5846  155.1634 O.3     1  UNL1       -0.3538
     35 C         138.0357  145.5788  155.1294 C.3     1  UNL1        0.1422
     36 C         139.3074  145.2996  155.8741 C.3     1  UNL1        0.0339
@<TRIPOS>BOND
     1    27    28    1
     2    28    29    1
     3    28    30    1
     4    28    21    1
     5    21    22   ar
     6    22    23   ar
     7    23    24   ar
     8    24    15    1
     9    15    16   ar
    10    16    17   ar
    11    17    18   ar
    12     1    18    1
    13     1     2    1
    14     2     3    1
    15     3     4    2
    16     4     5    1
    17     5     6    2
    18     6     7    1
    19     7     8    1
    20     8     9    2
    21     9    10    1
    22    10    11    2
    23     4    12    1
    24    12    31    1
    25    31    32    1
    26    32    33    1
    27    33    34    1
    28    34    35    1
    29    35    36    1
    30    12    13    1
    31    18    19   ar
    32    24    25   ar
    33    25    26   ar
    34    26    21   ar
    35    19    15   ar
    36    13     1    1
    37    11     3    1
    38    36    31    1
    39    11     6    1
    40    13    14    1
    41    19    20    1
@<TRIPOS>MOLECULE
*****
 36 41 0 0 0
SMALL
GASTEIGER

@<TRIPOS>ATOM
      1 C         144.0228  140.9919  157.5474 C.3     1  UNL1        0.1161
      2 C         145.4060  141.0569  156.9708 C.3     1  UNL1        0.0510
      3 C         145.7058  142.0022  155.8454 C.2     1  UNL1       -0.0044
      4 C         144.6223  142.8825  155.2966 C.2     1  UNL1        0.0689
      5 N         145.2117  143.7093  154.1925 N.2     1  UNL1       -0.2526
      6 C         146.6593  143.3399  154.0588 C.2     1  UNL1        0.0627
      7 C         147.7389  143.8280  153.1389 C.3     1  UNL1        0.0717
      8 C         149.1238  143.2610  153.2406 C.2     1  UNL1       -0.0198
      9 C         149.4292  142.2060  154.2621 C.2     1  UNL1       -0.0042
     10 C         148.3497  141.7179  155.1821 C.2     1  UNL1        0.0006
     11 C         146.9647  142.2849  155.0804 C.2     1  UNL1        0.0111
     12 C         143.2391  142.8175  155.8733 C.3     1  UNL1        0.0949
     13 N         142.9394  141.8722  156.9987 N.3     1  UNL1       -0.2887
     14 H         142.1946  141.2553  156.6745 H       1  UNL1        0.1239
     15 C         143.4169  139.1330  160.9004 C.ar    1  UNL1        0.0769
     16 C         143.1069  138.0509  159.9090 C.ar    1  UNL1        0.1171
     17 N         143.2961  138.6155  158.5323 N.ar    1  UNL1       -0.2282
     18 C         143.7231  140.0466  158.6729 C.ar    1  UNL1        0.1318
     19 N         143.7978  140.3664  160.1364 N.ar    1  UNL1       -0.3397
     20 H         144.0521  141.2336  160.5270 H       1  UNL1        0.1671
     21 C         143.2362  138.7468  165.3802 C.ar    1  UNL1        0.0714
     22 C         142.1175  138.2128  164.5357 C.ar    1  UNL1        0.0039
     23 C         142.1777  138.3415  163.0424 C.ar    1  UNL1        0.0014
     24 C         143.3567  139.0043  162.3937 C.ar    1  UNL1        0.0171
     25 C         144.4754  139.5383  163.2383 C.ar    1  UNL1        0.0014
     26 C         144.4151  139.4096  164.7315 C.ar    1  UNL1        0.0039
     27 F         143.1158  138.4894  168.3667 F       1  UNL1       -0.1659
     28 C         143.1759  138.6181  166.8735 C.3     1  UNL1        0.4186
     29 F         144.1969  137.5205  166.8200 F       1  UNL1       -0.1659
     30 F         142.1550  139.7157  166.9270 F       1  UNL1       -0.1659
     31 C         142.1556  143.6978  155.3245 C.3     1  UNL1        0.0252
     32 C         141.1160  143.1247  154.4078 C.3     1  UNL1        0.0339
     33 C         140.0325  144.0051  153.8591 C.3     1  UNL1        0.1422
     34 O         139.9887  145.4586  154.2271 O.3     1  UNL1       -0.3538
     35 C         141.0285  146.0317  155.1439 C.3     1  UNL1        0.1422
     36 C         142.1119  145.1514  155.6926 C.3     1  UNL1        0.0339
@<TRIPOS>BOND
     1    27    28    1
     2    28    29    1
     3    28    30    1
     4    28    21    1
     5    21    22   ar
     6    22    23   ar
     7    23    24   ar
     8    24    15    1
     9    15    16   ar
    10    16    17   ar
    11    17    18   ar
    12     1    18    1
    13     1     2    1
    14     2     3    1
    15     3     4    2
    16     4     5    1
    17     5     6    2
    18     6     7    1
    19     7     8    1
    20     8     9    2
    21     9    10    1
    22    10    11    2
    23     4    12    1
    24    12    31    1
    25    31    32    1
    26    32    33    1
    27    33    34    1
    28    34    35    1
    29    35    36    1
    30    12    13    1
    31    18    19   ar
    32    24    25   ar
    33    25    26   ar
    34    26    21   ar
    35    19    15   ar
    36    13     1    1
    37    11     3    1
    38    36    31    1
    39    11     6    1
    40    13    14    1
    41    19    20    1
@<TRIPOS>MOLECULE
*****
 36 41 0 0 0
SMALL
GASTEIGER

@<TRIPOS>ATOM
      1 C         141.6849  139.2560  160.7925 C.3     1  UNL1        0.1161
      2 C         140.8203  138.5586  161.8006 C.3     1  UNL1        0.0510
      3 C         140.4800  139.2374  163.0942 C.2     1  UNL1       -0.0044
      4 C         141.0043  140.6135  163.3798 C.2     1  UNL1        0.0689
      5 N         140.5047  141.0285  164.7318 N.2     1  UNL1       -0.2526
      6 C         139.6716  139.9089  165.2819 C.2     1  UNL1        0.0627
      7 C         138.9250  139.7545  166.5737 C.3     1  UNL1        0.0717
      8 C         138.1631  138.4930  166.8533 C.2     1  UNL1       -0.0198
      9 C         138.1478  137.3860  165.8412 C.2     1  UNL1       -0.0042
     10 C         138.8945  137.5405  164.5494 C.2     1  UNL1        0.0006
     11 C         139.6564  138.8020  164.2698 C.2     1  UNL1        0.0111
     12 C         141.8689  141.3108  162.3717 C.3     1  UNL1        0.0949
     13 N         142.2092  140.6320  161.0781 N.3     1  UNL1       -0.2887
     14 H         143.2267  140.5744  161.0346 H       1  UNL1        0.1239
     15 C         142.6869  136.8953  157.8790 C.ar    1  UNL1        0.0769
     16 C         142.4110  138.1698  157.1376 C.ar    1  UNL1        0.1171
     17 N         142.0021  139.2092  158.1388 N.ar    1  UNL1       -0.2282
     18 C         142.0253  138.5771  159.4989 C.ar    1  UNL1        0.1318
     19 N         142.4485  137.1471  159.3384 N.ar    1  UNL1       -0.3397
     20 H         142.5517  136.4893  160.0635 H       1  UNL1        0.1671
     21 C         143.9994  133.0004  156.0468 C.ar    1  UNL1        0.0714
     22 C         144.1323  133.2162  157.5252 C.ar    1  UNL1        0.0039
     23 C         143.6948  134.5145  158.1359 C.ar    1  UNL1        0.0014
     24 C         143.1244  135.5970  157.2682 C.ar    1  UNL1        0.0171
     25 C         142.9916  135.3812  155.7898 C.ar    1  UNL1        0.0014
     26 C         143.4291  134.0829  155.1791 C.ar    1  UNL1        0.0039
     27 F         144.8744  130.4038  154.8253 F       1  UNL1       -0.1659
     28 C         144.4369  131.7020  155.4361 C.3     1  UNL1        0.4186
     29 F         143.5238  131.9426  154.2707 F       1  UNL1       -0.1659
     30 F         145.3501  131.4615  156.6015 F       1  UNL1       -0.1659
     31 C         142.3932  142.6868  162.6572 C.3     1  UNL1        0.0252
     32 C         143.8589  142.9744  162.5199 C.3     1  UNL1        0.0339
     33 C         144.3832  144.3506  162.8055 C.3     1  UNL1        0.1422
     34 O         143.4417  145.4390  163.2283 O.3     1  UNL1       -0.3538
     35 C         141.9759  145.1515  163.3656 C.3     1  UNL1        0.1422
     36 C         141.4517  143.7754  163.0801 C.3     1  UNL1        0.0339
@<TRIPOS>BOND
     1    27    28    1
     2    28    29    1
     3    28    30    1
     4    28    21    1
     5    21    22   ar
     6    22    23   ar
     7    23    24   ar
     8    24    15    1
     9    15    16   ar
    10    16    17   ar
    11    17    18   ar
    12     1    18    1
    13     1     2    1
    14     2     3    1
    15     3     4    2
    16     4     5    1
    17     5     6    2
    18     6     7    1
    19     7     8    1
    20     8     9    2
    21     9    10    1
    22    10    11    2
    23     4    12    1
    24    12    31    1
    25    31    32    1
    26    32    33    1
    27    33    34    1
    28    34    35    1
    29    35    36    1
    30    12    13    1
    31    18    19   ar
    32    24    25   ar
    33    25    26   ar
    34    26    21   ar
    35    19    15   ar
    36    13     1    1
    37    11     3    1
    38    36    31    1
    39    11     6    1
    40    13    14    1
    41    19    20    1
@<TRIPOS>MOLECULE
*****
 36 41 0 0 0
SMALL
GASTEIGER

@<TRIPOS>ATOM
      1 C         141.7765  139.5186  159.7994 C.3     1  UNL1        0.1161
      2 C         142.8580  140.4785  159.4005 C.3     1  UNL1        0.0510
      3 C         143.6483  140.2398  158.1482 C.2     1  UNL1       -0.0044
      4 C         143.3572  139.0411  157.2947 C.2     1  UNL1        0.0689
      5 N         144.2951  139.0667  156.1244 N.2     1  UNL1       -0.2526
      6 C         145.1658  140.2812  156.2546 C.2     1  UNL1        0.0627
      7 C         146.2710  140.8206  155.3957 C.3     1  UNL1        0.0717
      8 C         146.9764  142.0849  155.7877 C.2     1  UNL1       -0.0198
      9 C         146.5767  142.8099  157.0386 C.2     1  UNL1       -0.0042
     10 C         145.4715  142.2706  157.8974 C.2     1  UNL1        0.0006
     11 C         144.7661  141.0062  157.5054 C.2     1  UNL1        0.0111
     12 C         142.2758  138.0812  157.6936 C.3     1  UNL1        0.0949
     13 N         141.4854  138.3199  158.9459 N.3     1  UNL1       -0.2887
     14 H         141.6154  137.4989  159.5371 H       1  UNL1        0.1239
     15 C         140.3708  139.9484  163.3917 C.ar    1  UNL1        0.0769
     16 C         139.1692  140.3011  162.5661 C.ar    1  UNL1        0.1171
     17 N         139.5494  140.1830  161.1199 N.ar    1  UNL1       -0.2282
     18 C         140.9861  139.7574  161.0518 C.ar    1  UNL1        0.1318
     19 N         141.4938  139.6124  162.4557 N.ar    1  UNL1       -0.3397
     20 H         142.4042  139.3438  162.7170 H       1  UNL1        0.1671
     21 C         140.5719  139.9060  167.8870 C.ar    1  UNL1        0.0714
     22 C         141.8328  139.8219  167.0790 C.ar    1  UNL1        0.0039
     23 C         141.7658  139.8361  165.5806 C.ar    1  UNL1        0.0014
     24 C         140.4378  139.9343  164.8902 C.ar    1  UNL1        0.0171
     25 C         139.1768  140.0184  165.6981 C.ar    1  UNL1        0.0014
     26 C         139.2438  140.0043  167.1965 C.ar    1  UNL1        0.0039
     27 F         140.7058  139.8777  170.8839 F       1  UNL1       -0.1659
     28 C         140.6388  139.8919  169.3855 C.3     1  UNL1        0.4186
     29 F         139.2744  140.5113  169.4522 F       1  UNL1       -0.1659
     30 F         142.0033  139.2725  169.3187 F       1  UNL1       -0.1659
     31 C         141.9847  136.8825  156.8401 C.3     1  UNL1        0.0252
     32 C         140.8583  136.9222  155.8504 C.3     1  UNL1        0.0339
     33 C         140.5673  135.7235  154.9969 C.3     1  UNL1        0.1422
     34 O         141.4026  134.4851  155.1331 O.3     1  UNL1       -0.3538
     35 C         142.5291  134.4454  156.1228 C.3     1  UNL1        0.1422
     36 C         142.8201  135.6441  156.9763 C.3     1  UNL1        0.0339
@<TRIPOS>BOND
     1    27    28    1
     2    28    29    1
     3    28    30    1
     4    28    21    1
     5    21    22   ar
     6    22    23   ar
     7    23    24   ar
     8    24    15    1
     9    15    16   ar
    10    16    17   ar
    11    17    18   ar
    12     1    18    1
    13     1     2    1
    14     2     3    1
    15     3     4    2
    16     4     5    1
    17     5     6    2
    18     6     7    1
    19     7     8    1
    20     8     9    2
    21     9    10    1
    22    10    11    2
    23     4    12    1
    24    12    31    1
    25    31    32    1
    26    32    33    1
    27    33    34    1
    28    34    35    1
    29    35    36    1
    30    12    13    1
    31    18    19   ar
    32    24    25   ar
    33    25    26   ar
    34    26    21   ar
    35    19    15   ar
    36    13     1    1
    37    11     3    1
    38    36    31    1
    39    11     6    1
    40    13    14    1
    41    19    20    1
