@<TRIPOS>MOLECULE
*****
 30 34 0 0 0
SMALL
GASTEIGER

@<TRIPOS>ATOM
      1 C         140.4164  138.1521  157.8704 C.3     1  UNL1        0.0181
      2 C         141.0827  138.6390  159.1231 C.3     1  UNL1        0.0036
      3 C         141.4572  139.2031  160.4616 C.3     1  UNL1        0.0227
      4 C         140.2019  139.6743  161.1338 C.3     1  UNL1        0.0870
      5 C         139.0513  139.4014  160.2109 C.3     1  UNL1        0.0227
      6 C         139.5957  138.7615  158.9682 C.3     1  UNL1        0.0036
      7 N         140.1126  140.3072  162.4908 N.ar    1  UNL1       -0.3092
      8 C         140.5370  141.7022  162.8427 C.ar    1  UNL1        0.1785
      9 N         140.2699  141.9134  164.3035 N.ar    1  UNL1       -0.2239
     10 C         139.6804  140.6489  164.8545 C.ar    1  UNL1        0.1010
     11 C         139.2197  140.2732  166.2316 C.ar    1  UNL1        0.0208
     12 C         138.6616  138.9048  166.4884 C.ar    1  UNL1        0.0039
     13 C         138.5644  137.9121  165.3681 C.ar    1  UNL1        0.0312
     14 C         139.0252  138.2878  163.9910 C.ar    1  UNL1        0.1573
     15 F         138.9279  137.2951  162.8707 F       1  UNL1       -0.2026
     16 C         139.5832  139.6562  163.7342 C.ar    1  UNL1        0.1066
     17 C         140.5057  137.5192  156.5135 C.3     1  UNL1        0.0718
     18 N         141.0835  136.1430  156.3643 N.am    1  UNL1       -0.3025
     19 C         142.5635  135.9335  156.4889 C.2     1  UNL1        0.2458
     20 O         143.4658  137.1001  156.7628 O.2     1  UNL1       -0.2701
     21 H         140.4913  135.3773  156.1846 H       1  UNL1        0.1497
     22 C         143.1414  134.5572  156.3398 C.ar    1  UNL1        0.0534
     23 C         143.9607  133.9637  157.4471 C.ar    1  UNL1        0.0054
     24 C         144.5385  132.5876  157.2979 C.ar    1  UNL1        0.0115
     25 C         144.2969  131.8049  156.0413 C.ar    1  UNL1        0.0577
     26 CL        144.8748  130.4287  155.8922 Cl      1  UNL1       -0.0822
     27 C         143.4775  132.3984  154.9339 C.ar    1  UNL1        0.0115
     28 C         142.8997  133.7745  155.0831 C.ar    1  UNL1        0.0054
     29 C         138.7518  139.0645  155.3795 C.3     1  UNL1        0.0017
     30 C         140.0171  138.2624  155.3056 C.3     1  UNL1        0.0196
@<TRIPOS>BOND
     1    29    30    1
     2    30    17    1
     3    17    18    1
     4    18    19   am
     5    19    20    2
     6    19    22    1
     7    22    23   ar
     8    23    24   ar
     9    24    25   ar
    10    25    26    1
    11    25    27   ar
    12    27    28   ar
    13     1    17    1
    14     1     2    1
    15     2     3    1
    16     3     4    1
    17     4     7    1
    18     7     8   ar
    19     8     9   ar
    20     9    10   ar
    21    10    11   ar
    22    11    12   ar
    23    12    13   ar
    24    13    14   ar
    25    14    15    1
    26    14    16   ar
    27     4     5    1
    28     6     5    1
    29    28    22   ar
    30     6     1    1
    31     6     2    1
    32    16     7   ar
    33    16    10   ar
    34    18    21    1
@<TRIPOS>MOLECULE
*****
 30 34 0 0 0
SMALL
GASTEIGER

@<TRIPOS>ATOM
      1 C         142.1843  137.9479  158.1882 C.3     1  UNL1        0.0181
      2 C         140.9045  138.3825  158.8390 C.3     1  UNL1        0.0036
      3 C         139.8137  138.9154  159.7200 C.3     1  UNL1        0.0227
      4 C         140.4496  139.4764  160.9572 C.3     1  UNL1        0.0870
      5 C         141.9335  139.2903  160.8409 C.3     1  UNL1        0.0227
      6 C         142.2146  138.6142  159.5318 C.3     1  UNL1        0.0036
      7 N         139.7283  140.1120  162.1087 N.ar    1  UNL1       -0.3092
      8 C         139.2922  141.5447  162.1932 C.ar    1  UNL1        0.1785
      9 N         138.6109  141.7446  163.5145 N.ar    1  UNL1       -0.2239
     10 C         138.6259  140.4354  164.2466 C.ar    1  UNL1        0.1010
     11 C         138.1000  140.0318  165.5921 C.ar    1  UNL1        0.0208
     12 C         138.2647  138.6191  166.0687 C.ar    1  UNL1        0.0039
     13 C         138.9553  137.6101  165.1998 C.ar    1  UNL1        0.0312
     14 C         139.4813  138.0138  163.8543 C.ar    1  UNL1        0.1573
     15 F         140.1719  137.0048  162.9855 F       1  UNL1       -0.2026
     16 C         139.3166  139.4264  163.3777 C.ar    1  UNL1        0.1066
     17 C         142.9056  137.3124  157.0368 C.3     1  UNL1        0.0718
     18 N         143.3744  135.8911  157.1380 N.am    1  UNL1       -0.3025
     19 C         142.5995  134.7961  156.4668 C.2     1  UNL1        0.2458
     20 O         141.3557  135.1224  155.6944 O.2     1  UNL1       -0.2701
     21 H         144.1908  135.6770  157.6449 H       1  UNL1        0.1497
     22 C         143.0684  133.3748  156.5679 C.ar    1  UNL1        0.0534
     23 C         144.3456  133.0558  157.2869 C.ar    1  UNL1        0.0054
     24 C         144.8144  131.6346  157.3880 C.ar    1  UNL1        0.0115
     25 C         144.0061  130.5324  156.7702 C.ar    1  UNL1        0.0577
     26 CL        144.4750  129.1112  156.8714 Cl      1  UNL1       -0.0822
     27 C         142.7289  130.8514  156.0512 C.ar    1  UNL1        0.0115
     28 C         142.2600  132.2726  155.9500 C.ar    1  UNL1        0.0054
     29 C         144.4876  138.0056  155.0961 C.3     1  UNL1        0.0017
     30 C         143.1580  138.0980  155.7842 C.3     1  UNL1        0.0196
@<TRIPOS>BOND
     1    29    30    1
     2    30    17    1
     3    17    18    1
     4    18    19   am
     5    19    20    2
     6    19    22    1
     7    22    23   ar
     8    23    24   ar
     9    24    25   ar
    10    25    26    1
    11    25    27   ar
    12    27    28   ar
    13     1    17    1
    14     1     2    1
    15     2     3    1
    16     3     4    1
    17     4     7    1
    18     7     8   ar
    19     8     9   ar
    20     9    10   ar
    21    10    11   ar
    22    11    12   ar
    23    12    13   ar
    24    13    14   ar
    25    14    15    1
    26    14    16   ar
    27     4     5    1
    28     6     5    1
    29    28    22   ar
    30     6     1    1
    31     6     2    1
    32    16     7   ar
    33    16    10   ar
    34    18    21    1
@<TRIPOS>MOLECULE
*****
 30 34 0 0 0
SMALL
GASTEIGER

@<TRIPOS>ATOM
      1 C         142.1231  137.7440  157.2933 C.3     1  UNL1        0.0181
      2 C         141.4957  136.6549  156.4744 C.3     1  UNL1        0.0036
      3 C         141.1655  135.4872  155.5927 C.3     1  UNL1        0.0227
      4 C         142.4549  134.8835  155.1205 C.3     1  UNL1        0.0870
      5 C         143.5821  135.6781  155.7104 C.3     1  UNL1        0.0227
      6 C         142.9893  136.7728  156.5472 C.3     1  UNL1        0.0036
      7 N         142.5929  133.6941  154.2171 N.ar    1  UNL1       -0.3092
      8 C         141.9937  133.5515  152.8494 C.ar    1  UNL1        0.1785
      9 N         142.3848  132.2077  152.3098 N.ar    1  UNL1       -0.2239
     10 C         143.2258  131.5198  153.3440 C.ar    1  UNL1        0.1010
     11 C         143.8911  130.1756  153.3646 C.ar    1  UNL1        0.0208
     12 C         144.6850  129.7501  154.5640 C.ar    1  UNL1        0.0039
     13 C         144.8136  130.6687  155.7428 C.ar    1  UNL1        0.0312
     14 C         144.1483  132.0129  155.7221 C.ar    1  UNL1        0.1573
     15 F         144.2769  132.9316  156.9009 F       1  UNL1       -0.2026
     16 C         143.3544  132.4384  154.5228 C.ar    1  UNL1        0.1066
     17 C         141.9851  138.9334  158.1966 C.3     1  UNL1        0.0718
     18 N         141.2049  138.8195  159.4727 N.am    1  UNL1       -0.3025
     19 C         141.7535  138.0218  160.6185 C.2     1  UNL1        0.2458
     20 O         143.0822  137.3380  160.4882 O.2     1  UNL1       -0.2701
     21 H         140.3329  139.2682  159.5583 H       1  UNL1        0.1497
     22 C         140.9733  137.9078  161.8946 C.ar    1  UNL1        0.0534
     23 C         141.6917  137.7371  163.2002 C.ar    1  UNL1        0.0054
     24 C         140.9116  137.6232  164.4763 C.ar    1  UNL1        0.0115
     25 C         139.4130  137.6801  164.4467 C.ar    1  UNL1        0.0577
     26 CL        138.6328  137.5662  165.7228 Cl      1  UNL1       -0.0822
     27 C         138.6945  137.8509  163.1411 C.ar    1  UNL1        0.0115
     28 C         139.4746  137.9648  161.8650 C.ar    1  UNL1        0.0054
     29 C         144.1149  140.3970  157.9289 C.3     1  UNL1        0.0017
     30 C         142.6272  140.2368  157.8240 C.3     1  UNL1        0.0196
@<TRIPOS>BOND
     1    29    30    1
     2    30    17    1
     3    17    18    1
     4    18    19   am
     5    19    20    2
     6    19    22    1
     7    22    23   ar
     8    23    24   ar
     9    24    25   ar
    10    25    26    1
    11    25    27   ar
    12    27    28   ar
    13     1    17    1
    14     1     2    1
    15     2     3    1
    16     3     4    1
    17     4     7    1
    18     7     8   ar
    19     8     9   ar
    20     9    10   ar
    21    10    11   ar
    22    11    12   ar
    23    12    13   ar
    24    13    14   ar
    25    14    15    1
    26    14    16   ar
    27     4     5    1
    28     6     5    1
    29    28    22   ar
    30     6     1    1
    31     6     2    1
    32    16     7   ar
    33    16    10   ar
    34    18    21    1
@<TRIPOS>MOLECULE
*****
 30 34 0 0 0
SMALL
GASTEIGER

@<TRIPOS>ATOM
      1 C         137.5030  141.5440  157.2618 C.3     1  UNL1        0.0181
      2 C         138.0963  140.9322  158.4962 C.3     1  UNL1        0.0036
      3 C         138.8058  140.6080  159.7775 C.3     1  UNL1        0.0227
      4 C         139.4859  141.8550  160.2592 C.3     1  UNL1        0.0870
      5 C         139.1967  142.9501  159.2758 C.3     1  UNL1        0.0227
      6 C         138.3379  142.3798  158.1862 C.3     1  UNL1        0.0036
      7 N         140.3104  141.9844  161.5056 N.ar    1  UNL1       -0.3092
      8 C         141.7172  141.4966  161.6867 C.ar    1  UNL1        0.1785
      9 N         142.1490  141.8350  163.0827 N.ar    1  UNL1       -0.2239
     10 C         141.0091  142.5320  163.7645 C.ar    1  UNL1        0.1010
     11 C         140.8591  143.0945  165.1469 C.ar    1  UNL1        0.0208
     12 C         139.5726  143.7494  165.5545 C.ar    1  UNL1        0.0039
     13 C         138.4363  143.8417  164.5798 C.ar    1  UNL1        0.0312
     14 C         138.5863  143.2792  163.1974 C.ar    1  UNL1        0.1573
     15 F         137.4499  143.3715  162.2227 F       1  UNL1       -0.2026
     16 C         139.8727  142.6243  162.7897 C.ar    1  UNL1        0.1066
     17 C         136.6786  141.4147  156.0155 C.3     1  UNL1        0.0718
     18 N         135.1831  141.5013  156.0931 N.am    1  UNL1       -0.3025
     19 C         134.3504  140.2654  155.9222 C.2     1  UNL1        0.2458
     20 O         135.0132  138.9429  155.6736 O.2     1  UNL1       -0.2701
     21 H         134.7481  142.3692  156.2562 H       1  UNL1        0.1497
     22 C         132.8549  140.3520  155.9998 C.ar    1  UNL1        0.0534
     23 C         132.0822  139.3162  156.7613 C.ar    1  UNL1        0.0054
     24 C         130.5867  139.4028  156.8390 C.ar    1  UNL1        0.0115
     25 C         129.8639  140.5252  156.1551 C.ar    1  UNL1        0.0577
     26 CL        128.3685  140.6118  156.2327 Cl      1  UNL1       -0.0822
     27 C         130.6366  141.5611  155.3935 C.ar    1  UNL1        0.0115
     28 C         132.1321  141.4745  155.3159 C.ar    1  UNL1        0.0054
     29 C         136.8211  141.8783  153.4631 C.3     1  UNL1        0.0017
     30 C         137.3496  141.1987  154.6913 C.3     1  UNL1        0.0196
@<TRIPOS>BOND
     1    29    30    1
     2    30    17    1
     3    17    18    1
     4    18    19   am
     5    19    20    2
     6    19    22    1
     7    22    23   ar
     8    23    24   ar
     9    24    25   ar
    10    25    26    1
    11    25    27   ar
    12    27    28   ar
    13     1    17    1
    14     1     2    1
    15     2     3    1
    16     3     4    1
    17     4     7    1
    18     7     8   ar
    19     8     9   ar
    20     9    10   ar
    21    10    11   ar
    22    11    12   ar
    23    12    13   ar
    24    13    14   ar
    25    14    15    1
    26    14    16   ar
    27     4     5    1
    28     6     5    1
    29    28    22   ar
    30     6     1    1
    31     6     2    1
    32    16     7   ar
    33    16    10   ar
    34    18    21    1
@<TRIPOS>MOLECULE
*****
 30 34 0 0 0
SMALL
GASTEIGER

@<TRIPOS>ATOM
      1 C         141.3522  139.2650  158.7058 C.3     1  UNL1        0.0181
      2 C         142.2857  138.3356  157.9882 C.3     1  UNL1        0.0036
      3 C         142.9553  137.2892  157.1475 C.3     1  UNL1        0.0227
      4 C         141.8893  136.5358  156.4088 C.3     1  UNL1        0.0870
      5 C         140.5606  137.1165  156.7928 C.3     1  UNL1        0.0227
      6 C         140.8056  138.2288  157.7689 C.3     1  UNL1        0.0036
      7 N         142.1126  135.4010  155.4536 N.ar    1  UNL1       -0.3092
      8 C         141.7119  135.3732  154.0084 C.ar    1  UNL1        0.1785
      9 N         142.1275  134.0498  153.4376 N.ar    1  UNL1       -0.2239
     10 C         142.7849  133.2596  154.5301 C.ar    1  UNL1        0.1010
     11 C         143.3907  131.8876  154.5513 C.ar    1  UNL1        0.0208
     12 C         143.9873  131.3507  155.8185 C.ar    1  UNL1        0.0039
     13 C         143.9781  132.1858  157.0644 C.ar    1  UNL1        0.0312
     14 C         143.3723  133.5579  157.0432 C.ar    1  UNL1        0.1573
     15 F         143.3631  134.3930  158.2892 F       1  UNL1       -0.2026
     16 C         142.7757  134.0947  155.7761 C.ar    1  UNL1        0.1066
     17 C         141.1289  140.3998  159.6609 C.3     1  UNL1        0.0718
     18 N         140.7625  140.1180  161.0879 N.am    1  UNL1       -0.3025
     19 C         139.3665  139.6921  161.4338 C.2     1  UNL1        0.2458
     20 O         138.3367  139.5480  160.3526 O.2     1  UNL1       -0.2701
     21 H         141.4384  140.2126  161.7975 H       1  UNL1        0.1497
     22 C         139.0001  139.4103  162.8609 C.ar    1  UNL1        0.0534
     23 C         138.4277  140.5004  163.7175 C.ar    1  UNL1        0.0054
     24 C         138.0614  140.2187  165.1445 C.ar    1  UNL1        0.0115
     25 C         138.2675  138.8467  165.7149 C.ar    1  UNL1        0.0577
     26 CL        137.9011  138.5650  167.1419 Cl      1  UNL1       -0.0822
     27 C         138.8399  137.7565  164.8582 C.ar    1  UNL1        0.0115
     28 C         139.2062  138.0383  163.4312 C.ar    1  UNL1        0.0054
     29 C         140.4626  142.9053  159.8287 C.3     1  UNL1        0.0017
     30 C         141.2719  141.8165  159.1890 C.3     1  UNL1        0.0196
@<TRIPOS>BOND
     1    29    30    1
     2    30    17    1
     3    17    18    1
     4    18    19   am
     5    19    20    2
     6    19    22    1
     7    22    23   ar
     8    23    24   ar
     9    24    25   ar
    10    25    26    1
    11    25    27   ar
    12    27    28   ar
    13     1    17    1
    14     1     2    1
    15     2     3    1
    16     3     4    1
    17     4     7    1
    18     7     8   ar
    19     8     9   ar
    20     9    10   ar
    21    10    11   ar
    22    11    12   ar
    23    12    13   ar
    24    13    14   ar
    25    14    15    1
    26    14    16   ar
    27     4     5    1
    28     6     5    1
    29    28    22   ar
    30     6     1    1
    31     6     2    1
    32    16     7   ar
    33    16    10   ar
    34    18    21    1
@<TRIPOS>MOLECULE
*****
 30 34 0 0 0
SMALL
GASTEIGER

@<TRIPOS>ATOM
      1 C         141.9773  138.3093  157.8108 C.3     1  UNL1        0.0181
      2 C         142.8377  137.2609  157.1700 C.3     1  UNL1        0.0036
      3 C         143.4275  136.1132  156.4052 C.3     1  UNL1        0.0227
      4 C         142.3139  135.4191  155.6786 C.3     1  UNL1        0.0870
      5 C         141.0357  136.1378  155.9943 C.3     1  UNL1        0.0227
      6 C         141.3594  137.2761  156.9160 C.3     1  UNL1        0.0036
      7 N         142.4539  134.2173  154.7920 N.ar    1  UNL1       -0.3092
      8 C         141.7967  134.0249  153.4574 C.ar    1  UNL1        0.1785
      9 N         142.2122  132.6856  152.9249 N.ar    1  UNL1       -0.2239
     10 C         143.1262  132.0502  153.9304 C.ar    1  UNL1        0.1010
     11 C         143.8417  130.7319  153.9443 C.ar    1  UNL1        0.0208
     12 C         144.7065  130.3604  155.1122 C.ar    1  UNL1        0.0039
     13 C         144.8559  131.3070  156.2661 C.ar    1  UNL1        0.0312
     14 C         144.1404  132.6253  156.2522 C.ar    1  UNL1        0.1573
     15 F         144.2897  133.5719  157.4061 F       1  UNL1       -0.2026
     16 C         143.2755  132.9968  155.0843 C.ar    1  UNL1        0.1066
     17 C         141.8374  139.5110  158.6974 C.3     1  UNL1        0.0718
     18 N         141.8886  139.3533  160.1882 N.am    1  UNL1       -0.3025
     19 C         143.1990  139.0935  160.8703 C.2     1  UNL1        0.2458
     20 O         144.4582  138.9915  160.0617 O.2     1  UNL1       -0.2701
     21 H         141.0621  139.4203  160.7189 H       1  UNL1        0.1497
     22 C         143.2501  138.9358  162.3612 C.ar    1  UNL1        0.0534
     23 C         144.3772  139.5446  163.1415 C.ar    1  UNL1        0.0054
     24 C         144.4283  139.3869  164.6323 C.ar    1  UNL1        0.0115
     25 C         143.3524  138.6203  165.3428 C.ar    1  UNL1        0.0577
     26 CL        143.4036  138.4626  166.8336 Cl      1  UNL1       -0.0822
     27 C         142.2253  138.0115  164.5624 C.ar    1  UNL1        0.0115
     28 C         142.1741  138.1692  163.0716 C.ar    1  UNL1        0.0054
     29 C         142.3194  141.2174  156.7984 C.3     1  UNL1        0.0017
     30 C         141.6463  140.8707  158.0932 C.3     1  UNL1        0.0196
@<TRIPOS>BOND
     1    29    30    1
     2    30    17    1
     3    17    18    1
     4    18    19   am
     5    19    20    2
     6    19    22    1
     7    22    23   ar
     8    23    24   ar
     9    24    25   ar
    10    25    26    1
    11    25    27   ar
    12    27    28   ar
    13     1    17    1
    14     1     2    1
    15     2     3    1
    16     3     4    1
    17     4     7    1
    18     7     8   ar
    19     8     9   ar
    20     9    10   ar
    21    10    11   ar
    22    11    12   ar
    23    12    13   ar
    24    13    14   ar
    25    14    15    1
    26    14    16   ar
    27     4     5    1
    28     6     5    1
    29    28    22   ar
    30     6     1    1
    31     6     2    1
    32    16     7   ar
    33    16    10   ar
    34    18    21    1
@<TRIPOS>MOLECULE
*****
 30 34 0 0 0
SMALL
GASTEIGER

@<TRIPOS>ATOM
      1 C         141.0796  143.1195  162.4571 C.3     1  UNL1        0.0181
      2 C         140.7644  142.0494  163.4599 C.3     1  UNL1        0.0036
      3 C         140.6810  141.1114  164.6276 C.3     1  UNL1        0.0227
      4 C         141.7238  141.5196  165.6255 C.3     1  UNL1        0.0870
      5 C         142.4517  142.7099  165.0747 C.3     1  UNL1        0.0227
      6 C         141.8588  143.0373  163.7363 C.3     1  UNL1        0.0036
      7 N         141.9917  140.8544  166.9429 N.ar    1  UNL1       -0.3092
      8 C         142.7923  139.6033  167.1522 C.ar    1  UNL1        0.1785
      9 N         142.8015  139.2992  168.6211 N.ar    1  UNL1       -0.2239
     10 C         142.0065  140.3623  169.3195 C.ar    1  UNL1        0.1010
     11 C         141.6737  140.5793  170.7659 C.ar    1  UNL1        0.0208
     12 C         140.8405  141.7575  171.1752 C.ar    1  UNL1        0.0039
     13 C         140.3400  142.7187  170.1380 C.ar    1  UNL1        0.0312
     14 C         140.6728  142.5017  168.6916 C.ar    1  UNL1        0.1573
     15 F         140.1724  143.4629  167.6545 F       1  UNL1       -0.2026
     16 C         141.5061  141.3235  168.2824 C.ar    1  UNL1        0.1066
     17 C         140.8117  143.7848  161.1398 C.3     1  UNL1        0.0718
     18 N         140.5006  142.9545  159.9299 N.am    1  UNL1       -0.3025
     19 C         139.0760  142.6353  159.5854 C.2     1  UNL1        0.2458
     20 O         137.9625  143.1463  160.4508 O.2     1  UNL1       -0.2701
     21 H         141.2314  142.6191  159.3618 H       1  UNL1        0.1497
     22 C         138.7649  141.8050  158.3754 C.ar    1  UNL1        0.0534
     23 C         139.5814  140.5835  158.0739 C.ar    1  UNL1        0.0054
     24 C         139.2703  139.7532  156.8640 C.ar    1  UNL1        0.0115
     25 C         138.1427  140.1446  155.9555 C.ar    1  UNL1        0.0577
     26 CL        137.8316  139.3144  154.7456 Cl      1  UNL1       -0.0822
     27 C         137.3261  141.3663  156.2570 C.ar    1  UNL1        0.0115
     28 C         137.6372  142.1965  157.4669 C.ar    1  UNL1        0.0054
     29 C         139.8494  146.1146  161.7689 C.3     1  UNL1        0.0017
     30 C         140.8549  145.2803  161.0322 C.3     1  UNL1        0.0196
@<TRIPOS>BOND
     1    29    30    1
     2    30    17    1
     3    17    18    1
     4    18    19   am
     5    19    20    2
     6    19    22    1
     7    22    23   ar
     8    23    24   ar
     9    24    25   ar
    10    25    26    1
    11    25    27   ar
    12    27    28   ar
    13     1    17    1
    14     1     2    1
    15     2     3    1
    16     3     4    1
    17     4     7    1
    18     7     8   ar
    19     8     9   ar
    20     9    10   ar
    21    10    11   ar
    22    11    12   ar
    23    12    13   ar
    24    13    14   ar
    25    14    15    1
    26    14    16   ar
    27     4     5    1
    28     6     5    1
    29    28    22   ar
    30     6     1    1
    31     6     2    1
    32    16     7   ar
    33    16    10   ar
    34    18    21    1
@<TRIPOS>MOLECULE
*****
 30 34 0 0 0
SMALL
GASTEIGER

@<TRIPOS>ATOM
      1 C         140.9895  140.3593  162.1173 C.3     1  UNL1        0.0181
      2 C         140.0163  141.3078  161.4822 C.3     1  UNL1        0.0036
      3 C         139.2282  142.2259  160.5955 C.3     1  UNL1        0.0227
      4 C         139.9095  142.2788  159.2603 C.3     1  UNL1        0.0870
      5 C         141.1188  141.3934  159.3216 C.3     1  UNL1        0.0227
      6 C         141.1848  140.7933  160.6947 C.3     1  UNL1        0.0036
      7 N         139.4604  143.0769  158.0723 N.ar    1  UNL1       -0.3092
      8 C         140.0789  144.3526  157.5824 C.ar    1  UNL1        0.1785
      9 N         139.3147  144.8035  156.3729 N.ar    1  UNL1       -0.2239
     10 C         138.2241  143.8064  156.1153 C.ar    1  UNL1        0.1010
     11 C         137.1606  143.7324  155.0601 C.ar    1  UNL1        0.0208
     12 C         136.1872  142.5912  155.0552 C.ar    1  UNL1        0.0039
     13 C         136.2772  141.5241  156.1055 C.ar    1  UNL1        0.0312
     14 C         137.3407  141.5981  157.1607 C.ar    1  UNL1        0.1573
     15 F         137.4307  140.5310  158.2110 F       1  UNL1       -0.2026
     16 C         138.3141  142.7393  157.1656 C.ar    1  UNL1        0.1066
     17 C         141.4385  139.5613  163.3052 C.3     1  UNL1        0.0718
     18 N         141.4107  140.1737  164.6742 N.am    1  UNL1       -0.3025
     19 C         140.1247  140.2312  165.4442 C.2     1  UNL1        0.2458
     20 O         138.8665  139.6761  164.8452 O.2     1  UNL1       -0.2701
     21 H         142.2365  140.5380  165.0674 H       1  UNL1        0.1497
     22 C         140.0969  140.8437  166.8132 C.ar    1  UNL1        0.0534
     23 C         139.5480  140.0654  167.9720 C.ar    1  UNL1        0.0054
     24 C         139.5202  140.6779  169.3410 C.ar    1  UNL1        0.0115
     25 C         140.0413  142.0686  169.5511 C.ar    1  UNL1        0.0577
     26 CL        140.0135  142.6811  170.9201 Cl      1  UNL1       -0.0822
     27 C         140.5903  142.8469  168.3923 C.ar    1  UNL1        0.0115
     28 C         140.6181  142.2345  167.0233 C.ar    1  UNL1        0.0054
     29 C         141.1701  137.0187  163.7670 C.3     1  UNL1        0.0017
     30 C         141.9154  138.1506  163.1243 C.3     1  UNL1        0.0196
@<TRIPOS>BOND
     1    29    30    1
     2    30    17    1
     3    17    18    1
     4    18    19   am
     5    19    20    2
     6    19    22    1
     7    22    23   ar
     8    23    24   ar
     9    24    25   ar
    10    25    26    1
    11    25    27   ar
    12    27    28   ar
    13     1    17    1
    14     1     2    1
    15     2     3    1
    16     3     4    1
    17     4     7    1
    18     7     8   ar
    19     8     9   ar
    20     9    10   ar
    21    10    11   ar
    22    11    12   ar
    23    12    13   ar
    24    13    14   ar
    25    14    15    1
    26    14    16   ar
    27     4     5    1
    28     6     5    1
    29    28    22   ar
    30     6     1    1
    31     6     2    1
    32    16     7   ar
    33    16    10   ar
    34    18    21    1
@<TRIPOS>MOLECULE
*****
 30 34 0 0 0
SMALL
GASTEIGER

@<TRIPOS>ATOM
      1 C         142.3465  140.6028  162.4387 C.3     1  UNL1        0.0181
      2 C         142.3432  139.9901  163.8079 C.3     1  UNL1        0.0036
      3 C         142.1252  139.5975  165.2392 C.3     1  UNL1        0.0227
      4 C         141.0982  140.5221  165.8223 C.3     1  UNL1        0.0870
      5 C         140.6813  141.4863  164.7514 C.3     1  UNL1        0.0227
      6 C         141.4508  141.1574  163.5065 C.3     1  UNL1        0.0036
      7 N         140.5791  140.4886  167.2292 N.ar    1  UNL1       -0.3092
      8 C         139.3356  139.7901  167.6938 C.ar    1  UNL1        0.1785
      9 N         139.2004  140.0176  169.1702 N.ar    1  UNL1       -0.2239
     10 C         140.3602  140.8566  169.6182 C.ar    1  UNL1        0.1010
     11 C         140.7505  141.3932  170.9634 C.ar    1  UNL1        0.0208
     12 C         141.9930  142.2209  171.1090 C.ar    1  UNL1        0.0039
     13 C         142.8451  142.5120  169.9093 C.ar    1  UNL1        0.0312
     14 C         142.4548  141.9755  168.5641 C.ar    1  UNL1        0.1573
     15 F         143.3069  142.2666  167.3645 F       1  UNL1       -0.2026
     16 C         141.2123  141.1478  168.4185 C.ar    1  UNL1        0.1066
     17 C         142.8656  140.6364  161.0319 C.3     1  UNL1        0.0718
     18 N         142.2603  141.5758  160.0313 N.am    1  UNL1       -0.3025
     19 C         142.6700  143.0187  160.0138 C.2     1  UNL1        0.2458
     20 O         143.6850  143.5221  160.9969 O.2     1  UNL1       -0.2701
     21 H         141.5942  141.2454  159.3861 H       1  UNL1        0.1497
     22 C         142.0647  143.9581  159.0132 C.ar    1  UNL1        0.0534
     23 C         140.8971  144.8161  159.4008 C.ar    1  UNL1        0.0054
     24 C         140.2918  145.7555  158.4002 C.ar    1  UNL1        0.0115
     25 C         140.8543  145.8369  157.0120 C.ar    1  UNL1        0.0577
     26 CL        140.2490  146.7763  156.0115 Cl      1  UNL1       -0.0822
     27 C         142.0220  144.9788  156.6244 C.ar    1  UNL1        0.0115
     28 C         142.6272  144.0394  157.6250 C.ar    1  UNL1        0.0054
     29 C         143.9533  138.2772  160.9950 C.3     1  UNL1        0.0017
     30 C         143.9900  139.7305  160.6255 C.3     1  UNL1        0.0196
@<TRIPOS>BOND
     1    29    30    1
     2    30    17    1
     3    17    18    1
     4    18    19   am
     5    19    20    2
     6    19    22    1
     7    22    23   ar
     8    23    24   ar
     9    24    25   ar
    10    25    26    1
    11    25    27   ar
    12    27    28   ar
    13     1    17    1
    14     1     2    1
    15     2     3    1
    16     3     4    1
    17     4     7    1
    18     7     8   ar
    19     8     9   ar
    20     9    10   ar
    21    10    11   ar
    22    11    12   ar
    23    12    13   ar
    24    13    14   ar
    25    14    15    1
    26    14    16   ar
    27     4     5    1
    28     6     5    1
    29    28    22   ar
    30     6     1    1
    31     6     2    1
    32    16     7   ar
    33    16    10   ar
    34    18    21    1
