@<TRIPOS>MOLECULE
*****
 36 40 0 0 0
SMALL
GASTEIGER

@<TRIPOS>ATOM
      1 C         139.4331  139.4161  166.3957 C.3     1  UNL1        0.0545
      2 C         138.9651  139.8022  167.7674 C.3     1  UNL1        0.0164
      3 C         140.1756  140.0678  168.6125 C.3     1  UNL1        0.0151
      4 C         140.6345  140.4706  169.9826 C.3     1  UNL1        0.0671
      5 C         142.1343  140.4975  169.9798 C.3     1  UNL1        0.2644
      6 F         141.9727  140.9072  171.4137 F       1  UNL1       -0.2043
      7 F         143.6003  140.6101  170.2768 F       1  UNL1       -0.2043
      8 C         142.6023  140.1114  168.6081 C.3     1  UNL1        0.0752
      9 C         141.3918  139.8458  167.7630 C.3     1  UNL1        0.0758
     10 C         140.9329  139.4430  166.3929 C.3     1  UNL1        0.0245
     11 C         142.6079  139.6238  166.9135 C.2     1  UNL1        0.2252
     12 O         143.5697  138.5240  167.2534 O.2     1  UNL1       -0.2749
     13 N         142.8624  140.5016  165.7240 N.am    1  UNL1       -0.2750
     14 C         144.0785  140.2796  164.8745 C.3     1  UNL1        0.1000
     15 C         144.3329  141.1573  163.6851 C.3     1  UNL1        0.0670
     16 C         143.3711  142.2571  163.3452 C.ar    1  UNL1        0.0583
     17 N         143.6256  143.1349  162.1557 N.ar    1  UNL1       -0.2484
     18 C         142.6638  144.2347  161.8158 C.ar    1  UNL1        0.1023
     19 C         141.4476  144.4567  162.6654 C.ar    1  UNL1        0.0902
     20 C         141.1933  143.5789  163.8548 C.ar    1  UNL1        0.0040
     21 C         142.1550  142.4791  164.1947 C.ar    1  UNL1        0.0113
     22 C         141.9006  141.6014  165.3841 C.3     1  UNL1        0.1213
     23 C         140.4859  145.5565  162.3255 C.3     1  UNL1        0.4200
     24 F         139.5242  146.6563  161.9856 F       1  UNL1       -0.1658
     25 F         139.8709  145.4400  163.6886 F       1  UNL1       -0.1658
     26 F         141.1009  145.6730  160.9623 F       1  UNL1       -0.1658
     27 N         138.5555  139.0646  165.2310 N.3     1  UNL1       -0.2975
     28 H         139.0243  138.3132  164.7252 H       1  UNL1        0.1232
     29 C         138.0371  139.7351  162.7751 C.3     1  UNL1        0.1591
     30 C         137.6804  140.7822  161.7620 C.3     1  UNL1        0.1729
     31 O         137.4852  142.2060  162.1918 O.3     1  UNL1       -0.3511
     32 C         137.6468  142.5827  163.6348 C.3     1  UNL1        0.1437
     33 C         138.0036  141.5356  164.6478 C.3     1  UNL1        0.0503
     34 C         138.1987  140.1118  164.2179 C.3     1  UNL1        0.0865
     35 C         139.2245  137.9819  161.2695 C.3     1  UNL1        0.1742
     36 O         138.2323  138.3114  162.3452 O.3     1  UNL1       -0.3496
@<TRIPOS>BOND
     1    35    36    1
     2    36    29    1
     3    29    30    1
     4    30    31    1
     5    31    32    1
     6    32    33    1
     7    33    34    1
     8    34    27    1
     9     1    27    1
    10     1     2    1
    11     3     2    1
    12     3     4    1
    13     4     5    1
    14     5     6    1
    15     5     7    1
    16     5     8    1
    17     8     9    1
    18     9    11    1
    19    11    12    2
    20    11    13   am
    21    13    14    1
    22    14    15    1
    23    15    16    1
    24    16    17   ar
    25    17    18   ar
    26    18    19   ar
    27    19    23    1
    28    23    24    1
    29    23    25    1
    30    23    26    1
    31    19    20   ar
    32    20    21   ar
    33    21    22    1
    34     9    10    1
    35    34    29    1
    36    10     1    1
    37     9     3    1
    38    22    13    1
    39    21    16   ar
    40    27    28    1
@<TRIPOS>MOLECULE
*****
 36 40 0 0 0
SMALL
GASTEIGER

@<TRIPOS>ATOM
      1 C         139.4728  139.1335  166.2432 C.3     1  UNL1        0.0545
      2 C         138.9780  139.6121  167.5759 C.3     1  UNL1        0.0164
      3 C         140.1622  140.0787  168.3697 C.3     1  UNL1        0.0151
      4 C         140.5883  140.6629  169.6839 C.3     1  UNL1        0.0671
      5 C         142.0782  140.8337  169.6540 C.3     1  UNL1        0.2644
      6 F         141.8865  141.3715  171.0411 F       1  UNL1       -0.2043
      7 F         143.5281  141.1169  169.9141 F       1  UNL1       -0.2043
      8 C         142.5730  140.3550  168.3213 C.3     1  UNL1        0.0752
      9 C         141.3889  139.8884  167.5276 C.3     1  UNL1        0.0758
     10 C         140.9628  139.3042  166.2133 C.3     1  UNL1        0.0245
     11 C         142.6155  139.6981  166.6854 C.2     1  UNL1        0.2252
     12 O         143.6030  138.6232  167.0308 O.2     1  UNL1       -0.2749
     13 N         142.8545  140.5828  165.4978 N.am    1  UNL1       -0.2750
     14 C         144.0811  140.3925  164.6557 C.3     1  UNL1        0.1000
     15 C         144.3202  141.2772  163.4682 C.3     1  UNL1        0.0670
     16 C         143.3326  142.3521  163.1228 C.ar    1  UNL1        0.0583
     17 N         143.5717  143.2368  161.9353 N.ar    1  UNL1       -0.2484
     18 C         142.5842  144.3117  161.5899 C.ar    1  UNL1        0.1023
     19 C         141.3575  144.5020  162.4321 C.ar    1  UNL1        0.0902
     20 C         141.1185  143.6173  163.6196 C.ar    1  UNL1        0.0040
     21 C         142.1060  142.5424  163.9650 C.ar    1  UNL1        0.0113
     22 C         141.8670  141.6577  165.1525 C.3     1  UNL1        0.1213
     23 C         140.3700  145.5769  162.0867 C.3     1  UNL1        0.4200
     24 F         139.3824  146.6518  161.7413 F       1  UNL1       -0.1658
     25 F         140.9923  145.7123  160.7286 F       1  UNL1       -0.1658
     26 F         139.7476  145.4415  163.4448 F       1  UNL1       -0.1658
     27 N         138.6263  138.5810  165.1349 N.3     1  UNL1       -0.2975
     28 H         138.9967  137.6566  164.9143 H       1  UNL1        0.1232
     29 C         139.0800  138.7297  162.5811 C.3     1  UNL1        0.1591
     30 C         138.9666  139.4721  161.2827 C.3     1  UNL1        0.1729
     31 O         138.2860  140.8081  161.2395 O.3     1  UNL1       -0.3511
     32 C         137.7188  141.4018  162.4949 C.3     1  UNL1        0.1437
     33 C         137.8322  140.6594  163.7934 C.3     1  UNL1        0.0503
     34 C         138.5128  139.3234  163.8365 C.3     1  UNL1        0.0865
     35 C         141.1961  137.2966  163.0485 C.3     1  UNL1        0.1742
     36 O         139.7606  137.3937  162.6243 O.3     1  UNL1       -0.3496
@<TRIPOS>BOND
     1    35    36    1
     2    36    29    1
     3    29    30    1
     4    30    31    1
     5    31    32    1
     6    32    33    1
     7    33    34    1
     8    34    27    1
     9     1    27    1
    10     1     2    1
    11     3     2    1
    12     3     4    1
    13     4     5    1
    14     5     6    1
    15     5     7    1
    16     5     8    1
    17     8     9    1
    18     9    11    1
    19    11    12    2
    20    11    13   am
    21    13    14    1
    22    14    15    1
    23    15    16    1
    24    16    17   ar
    25    17    18   ar
    26    18    19   ar
    27    19    23    1
    28    23    24    1
    29    23    25    1
    30    23    26    1
    31    19    20   ar
    32    20    21   ar
    33    21    22    1
    34     9    10    1
    35    34    29    1
    36    10     1    1
    37     9     3    1
    38    22    13    1
    39    21    16   ar
    40    27    28    1
@<TRIPOS>MOLECULE
*****
 36 40 0 0 0
SMALL
GASTEIGER

@<TRIPOS>ATOM
      1 C         140.8253  137.6076  163.4029 C.3     1  UNL1        0.0545
      2 C         139.3968  137.4182  163.8195 C.3     1  UNL1        0.0164
      3 C         139.2037  138.1055  165.1387 C.3     1  UNL1        0.0151
      4 C         138.2016  138.4132  166.2115 C.3     1  UNL1        0.0671
      5 C         138.8913  139.2175  167.2733 C.3     1  UNL1        0.2644
      6 F         137.5483  139.1953  167.9410 F       1  UNL1       -0.2043
      7 F         139.3003  140.0172  168.4747 F       1  UNL1       -0.2043
      8 C         140.3198  139.4069  166.8567 C.3     1  UNL1        0.0752
      9 C         140.5129  138.7196  165.5375 C.3     1  UNL1        0.0758
     10 C         141.5151  138.4119  164.4647 C.3     1  UNL1        0.0245
     11 C         141.8220  139.3337  165.9362 C.2     1  UNL1        0.2252
     12 O         142.7850  138.5602  166.7873 O.2     1  UNL1       -0.2749
     13 N         142.1682  140.7214  165.4838 N.am    1  UNL1       -0.2750
     14 C         143.4773  141.3355  165.8825 C.3     1  UNL1        0.1000
     15 C         143.8235  142.7231  165.4301 C.3     1  UNL1        0.0670
     16 C         142.8605  143.4966  164.5790 C.ar    1  UNL1        0.0583
     17 N         143.2067  144.8843  164.1266 N.ar    1  UNL1       -0.2484
     18 C         142.2437  145.6578  163.2755 C.ar    1  UNL1        0.1023
     19 C         140.9345  145.0436  162.8768 C.ar    1  UNL1        0.0902
     20 C         140.5884  143.6560  163.3292 C.ar    1  UNL1        0.0040
     21 C         141.5514  142.8825  164.1803 C.ar    1  UNL1        0.0113
     22 C         141.2052  141.4949  164.6327 C.3     1  UNL1        0.1213
     23 C         139.9715  145.8171  162.0257 C.3     1  UNL1        0.4200
     24 F         139.0086  146.5906  161.1746 F       1  UNL1       -0.1658
     25 F         138.9482  145.7472  163.1202 F       1  UNL1       -0.1658
     26 F         140.9949  145.8869  160.9313 F       1  UNL1       -0.1658
     27 N         141.4538  137.0845  162.1453 N.3     1  UNL1       -0.2975
     28 H         142.2450  136.5070  162.4297 H       1  UNL1        0.1232
     29 C         141.0277  138.6134  160.0884 C.3     1  UNL1        0.1591
     30 C         141.5397  139.5693  159.0521 C.3     1  UNL1        0.1729
     31 O         142.9898  139.9524  159.0363 O.3     1  UNL1       -0.3511
     32 C         143.9281  139.3794  160.0569 C.3     1  UNL1        0.1437
     33 C         143.4160  138.4235  161.0933 C.3     1  UNL1        0.0503
     34 C         141.9658  138.0404  161.1090 C.3     1  UNL1        0.0865
     35 C         138.5587  139.1736  160.6721 C.3     1  UNL1        0.1742
     36 O         139.5775  138.2303  160.1042 O.3     1  UNL1       -0.3496
@<TRIPOS>BOND
     1    35    36    1
     2    36    29    1
     3    29    30    1
     4    30    31    1
     5    31    32    1
     6    32    33    1
     7    33    34    1
     8    34    27    1
     9     1    27    1
    10     1     2    1
    11     3     2    1
    12     3     4    1
    13     4     5    1
    14     5     6    1
    15     5     7    1
    16     5     8    1
    17     8     9    1
    18     9    11    1
    19    11    12    2
    20    11    13   am
    21    13    14    1
    22    14    15    1
    23    15    16    1
    24    16    17   ar
    25    17    18   ar
    26    18    19   ar
    27    19    23    1
    28    23    24    1
    29    23    25    1
    30    23    26    1
    31    19    20   ar
    32    20    21   ar
    33    21    22    1
    34     9    10    1
    35    34    29    1
    36    10     1    1
    37     9     3    1
    38    22    13    1
    39    21    16   ar
    40    27    28    1
@<TRIPOS>MOLECULE
*****
 36 40 0 0 0
SMALL
GASTEIGER

@<TRIPOS>ATOM
      1 C         139.2989  139.6220  167.6947 C.3     1  UNL1        0.0545
      2 C         138.2723  138.9395  166.8401 C.3     1  UNL1        0.0164
      3 C         138.9456  138.4885  165.5779 C.3     1  UNL1        0.0151
      4 C         138.7272  137.7879  164.2696 C.3     1  UNL1        0.0671
      5 C         140.0350  137.7588  163.5355 C.3     1  UNL1        0.2644
      6 F         139.2473  137.0387  162.4814 F       1  UNL1       -0.2043
      7 F         141.1781  137.5790  162.5810 F       1  UNL1       -0.2043
      8 C         141.0616  138.4413  164.3900 C.3     1  UNL1        0.0752
      9 C         140.3884  138.8923  165.6523 C.3     1  UNL1        0.0758
     10 C         140.6067  139.5928  166.9605 C.3     1  UNL1        0.0245
     11 C         141.8310  139.2961  165.7267 C.2     1  UNL1        0.2252
     12 O         142.8260  138.4021  166.4055 O.2     1  UNL1       -0.2749
     13 N         142.2788  140.5939  165.1222 N.am    1  UNL1       -0.2750
     14 C         143.7215  140.9977  165.1967 C.3     1  UNL1        0.1000
     15 C         144.1691  142.2954  164.5922 C.3     1  UNL1        0.0670
     16 C         143.1741  143.1894  163.9134 C.ar    1  UNL1        0.0583
     17 N         143.6219  144.4872  163.3089 N.ar    1  UNL1       -0.2484
     18 C         142.6269  145.3812  162.6301 C.ar    1  UNL1        0.1023
     19 C         141.1842  144.9773  162.5557 C.ar    1  UNL1        0.0902
     20 C         140.7365  143.6795  163.1601 C.ar    1  UNL1        0.0040
     21 C         141.7315  142.7856  163.8390 C.ar    1  UNL1        0.0113
     22 C         141.2838  141.4878  164.4434 C.3     1  UNL1        0.1213
     23 C         140.1892  145.8713  161.8768 C.3     1  UNL1        0.4200
     24 F         139.1942  146.7652  161.1980 F       1  UNL1       -0.1658
     25 F         141.0449  145.8883  160.6450 F       1  UNL1       -0.1658
     26 F         139.3334  145.8542  163.1087 F       1  UNL1       -0.1658
     27 N         139.0598  140.2275  169.0461 N.3     1  UNL1       -0.2975
     28 H         138.1706  140.7242  168.9930 H       1  UNL1        0.1232
     29 C         141.2598  140.6664  170.3565 C.3     1  UNL1        0.1591
     30 C         142.2575  141.6250  170.9360 C.3     1  UNL1        0.1729
     31 O         142.0527  143.1032  170.7846 O.3     1  UNL1       -0.3511
     32 C         140.8502  143.6229  170.0538 C.3     1  UNL1        0.1437
     33 C         139.8526  142.6643  169.4743 C.3     1  UNL1        0.0503
     34 C         140.0574  141.1860  169.6256 C.3     1  UNL1        0.0865
     35 C         142.7560  138.5615  170.0722 C.3     1  UNL1        0.1742
     36 O         141.4646  139.1882  170.5078 O.3     1  UNL1       -0.3496
@<TRIPOS>BOND
     1    35    36    1
     2    36    29    1
     3    29    30    1
     4    30    31    1
     5    31    32    1
     6    32    33    1
     7    33    34    1
     8    34    27    1
     9     1    27    1
    10     1     2    1
    11     3     2    1
    12     3     4    1
    13     4     5    1
    14     5     6    1
    15     5     7    1
    16     5     8    1
    17     8     9    1
    18     9    11    1
    19    11    12    2
    20    11    13   am
    21    13    14    1
    22    14    15    1
    23    15    16    1
    24    16    17   ar
    25    17    18   ar
    26    18    19   ar
    27    19    23    1
    28    23    24    1
    29    23    25    1
    30    23    26    1
    31    19    20   ar
    32    20    21   ar
    33    21    22    1
    34     9    10    1
    35    34    29    1
    36    10     1    1
    37     9     3    1
    38    22    13    1
    39    21    16   ar
    40    27    28    1
@<TRIPOS>MOLECULE
*****
 36 40 0 0 0
SMALL
GASTEIGER

@<TRIPOS>ATOM
      1 C         141.0437  144.5112  161.2263 C.3     1  UNL1        0.0545
      2 C         141.3401  145.4385  162.3674 C.3     1  UNL1        0.0164
      3 C         142.4748  144.8551  163.1561 C.3     1  UNL1        0.0151
      4 C         143.3592  145.0676  164.3488 C.3     1  UNL1        0.0671
      5 C         144.3108  143.9111  164.4323 C.3     1  UNL1        0.2644
      6 F         144.8287  144.6280  165.6438 F       1  UNL1       -0.2043
      7 F         145.3706  142.9044  164.7690 F       1  UNL1       -0.2043
      8 C         144.0144  142.9837  163.2912 C.3     1  UNL1        0.0752
      9 C         142.8797  143.5671  162.5024 C.3     1  UNL1        0.0758
     10 C         141.9953  143.3546  161.3097 C.3     1  UNL1        0.0245
     11 C         143.2846  142.2792  161.8488 C.2     1  UNL1        0.2252
     12 O         144.3450  142.2776  160.7878 O.2     1  UNL1       -0.2749
     13 N         142.6292  140.9929  162.2561 N.am    1  UNL1       -0.2750
     14 C         143.0341  139.7050  161.6024 C.3     1  UNL1        0.1000
     15 C         142.3786  138.4188  162.0097 C.3     1  UNL1        0.0670
     16 C         141.3183  138.4204  163.0707 C.ar    1  UNL1        0.0583
     17 N         140.6628  137.1341  163.4780 N.ar    1  UNL1       -0.2484
     18 C         139.6025  137.1358  164.5389 C.ar    1  UNL1        0.1023
     19 C         139.1976  138.4237  165.1926 C.ar    1  UNL1        0.0902
     20 C         139.8530  139.7100  164.7853 C.ar    1  UNL1        0.0040
     21 C         140.9134  139.7083  163.7243 C.ar    1  UNL1        0.0113
     22 C         141.5688  140.9946  163.3170 C.3     1  UNL1        0.1213
     23 C         138.1373  138.4254  166.2536 C.3     1  UNL1        0.4200
     24 F         137.0769  138.4271  167.3146 F       1  UNL1       -0.1658
     25 F         138.0675  136.9285  166.1862 F       1  UNL1       -0.1658
     26 F         138.2070  139.9223  166.3209 F       1  UNL1       -0.1658
     27 N         139.9822  144.7061  160.1845 N.3     1  UNL1       -0.2975
     28 H         139.1241  144.9478  160.6802 H       1  UNL1        0.1232
     29 C         138.5397  142.6285  159.5907 C.3     1  UNL1        0.1591
     30 C         138.1968  141.5107  158.6510 C.3     1  UNL1        0.1729
     31 O         138.9534  141.3527  157.3655 O.3     1  UNL1       -0.3511
     32 C         140.0531  142.3126  157.0197 C.3     1  UNL1        0.1437
     33 C         140.3960  143.4304  157.9593 C.3     1  UNL1        0.0503
     34 C         139.6393  143.5883  159.2449 C.3     1  UNL1        0.0865
     35 C         138.1719  141.9795  162.0794 C.3     1  UNL1        0.1742
     36 O         137.7830  142.7864  160.8761 O.3     1  UNL1       -0.3496
@<TRIPOS>BOND
     1    35    36    1
     2    36    29    1
     3    29    30    1
     4    30    31    1
     5    31    32    1
     6    32    33    1
     7    33    34    1
     8    34    27    1
     9     1    27    1
    10     1     2    1
    11     3     2    1
    12     3     4    1
    13     4     5    1
    14     5     6    1
    15     5     7    1
    16     5     8    1
    17     8     9    1
    18     9    11    1
    19    11    12    2
    20    11    13   am
    21    13    14    1
    22    14    15    1
    23    15    16    1
    24    16    17   ar
    25    17    18   ar
    26    18    19   ar
    27    19    23    1
    28    23    24    1
    29    23    25    1
    30    23    26    1
    31    19    20   ar
    32    20    21   ar
    33    21    22    1
    34     9    10    1
    35    34    29    1
    36    10     1    1
    37     9     3    1
    38    22    13    1
    39    21    16   ar
    40    27    28    1
@<TRIPOS>MOLECULE
*****
 36 40 0 0 0
SMALL
GASTEIGER

@<TRIPOS>ATOM
      1 C         141.4410  142.4037  161.3539 C.3     1  UNL1        0.0545
      2 C         141.5955  143.8787  161.5782 C.3     1  UNL1        0.0164
      3 C         142.5580  144.0769  162.7115 C.3     1  UNL1        0.0151
      4 C         143.2484  145.1110  163.5505 C.3     1  UNL1        0.0671
      5 C         144.1155  144.3975  164.5451 C.3     1  UNL1        0.2644
      6 F         144.4666  145.7840  164.9971 F       1  UNL1       -0.2043
      7 F         145.0560  143.9739  165.6341 F       1  UNL1       -0.2043
      8 C         143.9611  142.9225  164.3207 C.3     1  UNL1        0.0752
      9 C         142.9985  142.7243  163.1875 C.3     1  UNL1        0.0758
     10 C         142.3081  141.6902  162.3484 C.3     1  UNL1        0.0245
     11 C         143.4389  141.3717  163.6634 C.2     1  UNL1        0.2252
     12 O         144.2752  140.4995  162.7747 O.2     1  UNL1       -0.2749
     13 N         143.0431  140.8913  165.0282 N.am    1  UNL1       -0.2750
     14 C         143.4835  139.5388  165.5042 C.3     1  UNL1        0.1000
     15 C         143.0876  139.0584  166.8689 C.3     1  UNL1        0.0670
     16 C         142.2514  139.9306  167.7577 C.ar    1  UNL1        0.0583
     17 N         141.8555  139.4502  169.1225 N.ar    1  UNL1       -0.2484
     18 C         141.0193  140.3224  170.0112 C.ar    1  UNL1        0.1023
     19 C         140.5789  141.6751  169.5352 C.ar    1  UNL1        0.0902
     20 C         140.9747  142.1554  168.1705 C.ar    1  UNL1        0.0040
     21 C         141.8110  141.2832  167.2817 C.ar    1  UNL1        0.0113
     22 C         142.2068  141.7635  165.9170 C.3     1  UNL1        0.1213
     23 C         139.7426  142.5473  170.4240 C.3     1  UNL1        0.4200
     24 F         138.9063  143.4195  171.3128 F       1  UNL1       -0.1658
     25 F         138.6486  141.5213  170.4015 F       1  UNL1       -0.1658
     26 F         140.8366  143.5732  170.4465 F       1  UNL1       -0.1658
     27 N         140.5720  141.7558  160.3170 N.3     1  UNL1       -0.2975
     28 H         139.9903  142.4926  159.9180 H       1  UNL1        0.1232
     29 C         138.2798  140.9442  161.2320 C.3     1  UNL1        0.1591
     30 C         137.3576  139.8261  161.6186 C.3     1  UNL1        0.1729
     31 O         137.8053  138.4016  161.4767 O.3     1  UNL1       -0.3511
     32 C         139.1753  138.0950  160.9481 C.3     1  UNL1        0.1437
     33 C         140.0975  139.2131  160.5616 C.3     1  UNL1        0.0503
     34 C         139.6497  140.6377  160.7035 C.3     1  UNL1        0.0865
     35 C         137.8158  143.0186  162.7258 C.3     1  UNL1        0.1742
     36 O         137.8321  142.3687  161.3740 O.3     1  UNL1       -0.3496
@<TRIPOS>BOND
     1    35    36    1
     2    36    29    1
     3    29    30    1
     4    30    31    1
     5    31    32    1
     6    32    33    1
     7    33    34    1
     8    34    27    1
     9     1    27    1
    10     1     2    1
    11     3     2    1
    12     3     4    1
    13     4     5    1
    14     5     6    1
    15     5     7    1
    16     5     8    1
    17     8     9    1
    18     9    11    1
    19    11    12    2
    20    11    13   am
    21    13    14    1
    22    14    15    1
    23    15    16    1
    24    16    17   ar
    25    17    18   ar
    26    18    19   ar
    27    19    23    1
    28    23    24    1
    29    23    25    1
    30    23    26    1
    31    19    20   ar
    32    20    21   ar
    33    21    22    1
    34     9    10    1
    35    34    29    1
    36    10     1    1
    37     9     3    1
    38    22    13    1
    39    21    16   ar
    40    27    28    1
@<TRIPOS>MOLECULE
*****
 36 40 0 0 0
SMALL
GASTEIGER

@<TRIPOS>ATOM
      1 C         142.1302  141.2231  166.3732 C.3     1  UNL1        0.0545
      2 C         143.4318  141.9375  166.1602 C.3     1  UNL1        0.0164
      3 C         143.2012  143.0332  165.1621 C.3     1  UNL1        0.0151
      4 C         143.8631  144.1520  164.4135 C.3     1  UNL1        0.0671
      5 C         142.8281  144.8062  163.5471 C.3     1  UNL1        0.2644
      6 F         143.9629  145.6962  163.1349 F       1  UNL1       -0.2043
      7 F         142.0302  145.6464  162.5944 F       1  UNL1       -0.2043
      8 C         141.5265  144.0917  163.7601 C.3     1  UNL1        0.0752
      9 C         141.7570  142.9960  164.7582 C.3     1  UNL1        0.0758
     10 C         141.0952  141.8773  165.5068 C.3     1  UNL1        0.0245
     11 C         140.3129  142.9588  164.3544 C.2     1  UNL1        0.2252
     12 O         139.2994  143.7572  165.1194 O.2     1  UNL1       -0.2749
     13 N         139.8823  142.1230  163.1856 N.am    1  UNL1       -0.2750
     14 C         138.4382  142.0858  162.7818 C.3     1  UNL1        0.1000
     15 C         138.0076  141.2501  161.6130 C.3     1  UNL1        0.0670
     16 C         139.0211  140.4516  160.8480 C.ar    1  UNL1        0.0583
     17 N         138.5905  139.6159  159.6791 N.ar    1  UNL1       -0.2484
     18 C         139.6040  138.8174  158.9141 C.ar    1  UNL1        0.1023
     19 C         141.0482  138.8547  159.3179 C.ar    1  UNL1        0.0902
     20 C         141.4788  139.6904  160.4867 C.ar    1  UNL1        0.0040
     21 C         140.4652  140.4889  161.2518 C.ar    1  UNL1        0.0113
     22 C         140.8958  141.3246  162.4206 C.3     1  UNL1        0.1213
     23 C         142.0617  138.0563  158.5529 C.3     1  UNL1        0.4200
     24 F         143.0752  137.2578  157.7879 F       1  UNL1       -0.1658
     25 F         141.0237  137.7269  157.5214 F       1  UNL1       -0.1658
     26 F         143.0997  138.3856  159.5845 F       1  UNL1       -0.1658
     27 N         141.9034  140.0589  167.2915 N.3     1  UNL1       -0.2975
     28 H         141.3912  139.3575  166.7567 H       1  UNL1        0.1232
     29 C         141.8959  140.6512  169.8212 C.3     1  UNL1        0.1591
     30 C         141.1495  140.8450  171.1077 C.3     1  UNL1        0.1729
     31 O         139.6641  140.6405  171.1512 O.3     1  UNL1       -0.3511
     32 C         138.9252  140.2421  169.9081 C.3     1  UNL1        0.1437
     33 C         139.6716  140.0483  168.6215 C.3     1  UNL1        0.0503
     34 C         141.1570  140.2528  168.5781 C.3     1  UNL1        0.0865
     35 C         143.9485  142.2439  169.8113 C.3     1  UNL1        0.1742
     36 O         143.3812  140.8556  169.7777 O.3     1  UNL1       -0.3496
@<TRIPOS>BOND
     1    35    36    1
     2    36    29    1
     3    29    30    1
     4    30    31    1
     5    31    32    1
     6    32    33    1
     7    33    34    1
     8    34    27    1
     9     1    27    1
    10     1     2    1
    11     3     2    1
    12     3     4    1
    13     4     5    1
    14     5     6    1
    15     5     7    1
    16     5     8    1
    17     8     9    1
    18     9    11    1
    19    11    12    2
    20    11    13   am
    21    13    14    1
    22    14    15    1
    23    15    16    1
    24    16    17   ar
    25    17    18   ar
    26    18    19   ar
    27    19    23    1
    28    23    24    1
    29    23    25    1
    30    23    26    1
    31    19    20   ar
    32    20    21   ar
    33    21    22    1
    34     9    10    1
    35    34    29    1
    36    10     1    1
    37     9     3    1
    38    22    13    1
    39    21    16   ar
    40    27    28    1
@<TRIPOS>MOLECULE
*****
 36 40 0 0 0
SMALL
GASTEIGER

@<TRIPOS>ATOM
      1 C         141.6794  141.4954  161.5043 C.3     1  UNL1        0.0545
      2 C         140.2724  141.5908  160.9933 C.3     1  UNL1        0.0164
      3 C         139.5449  140.3447  161.4030 C.3     1  UNL1        0.0151
      4 C         138.2257  139.6334  161.3404 C.3     1  UNL1        0.0671
      5 C         138.3679  138.3282  162.0659 C.3     1  UNL1        0.2644
      6 F         136.9276  138.1428  161.6901 F       1  UNL1       -0.2043
      7 F         138.2090  136.9843  162.7128 F       1  UNL1       -0.2043
      8 C         139.7749  138.2328  162.5768 C.3     1  UNL1        0.0752
      9 C         140.5024  139.4790  162.1672 C.3     1  UNL1        0.0758
     10 C         141.8216  140.1902  162.2298 C.3     1  UNL1        0.0245
     11 C         141.4598  138.6134  162.9313 C.2     1  UNL1        0.2252
     12 O         142.0597  137.4025  162.2803 O.2     1  UNL1       -0.2749
     13 N         141.8174  138.9586  164.3466 N.am    1  UNL1       -0.2750
     14 C         142.7749  138.0930  165.1108 C.3     1  UNL1        0.1000
     15 C         143.1324  138.4383  166.5260 C.3     1  UNL1        0.0670
     16 C         142.5325  139.6491  167.1771 C.ar    1  UNL1        0.0583
     17 N         142.8901  139.9944  168.5924 N.ar    1  UNL1       -0.2484
     18 C         142.2902  141.2053  169.2435 C.ar    1  UNL1        0.1023
     19 C         141.3327  142.0709  168.4792 C.ar    1  UNL1        0.0902
     20 C         140.9752  141.7256  167.0640 C.ar    1  UNL1        0.0040
     21 C         141.5751  140.5147  166.4129 C.ar    1  UNL1        0.0113
     22 C         141.2175  140.1695  164.9977 C.3     1  UNL1        0.1213
     23 C         140.7328  143.2818  169.1303 C.3     1  UNL1        0.4200
     24 F         140.1329  144.4926  169.7814 F       1  UNL1       -0.1658
     25 F         140.0192  143.6147  167.8536 F       1  UNL1       -0.1658
     26 F         141.4463  142.9488  170.4070 F       1  UNL1       -0.1658
     27 N         142.7555  142.5244  161.3219 N.3     1  UNL1       -0.2975
     28 H         143.5674  142.0374  160.9424 H       1  UNL1        0.1232
     29 C         142.6570  144.6750  162.7763 C.3     1  UNL1        0.1591
     30 C         143.1403  145.4714  163.9520 C.3     1  UNL1        0.1729
     31 O         144.2052  144.9135  164.8490 O.3     1  UNL1       -0.3511
     32 C         144.7869  143.5592  164.5704 C.3     1  UNL1        0.1437
     33 C         144.3037  142.7629  163.3946 C.3     1  UNL1        0.0503
     34 C         143.2387  143.3208  162.4976 C.3     1  UNL1        0.0865
     35 C         140.2311  145.5385  162.4309 C.3     1  UNL1        0.1742
     36 O         141.5921  145.2329  161.8793 O.3     1  UNL1       -0.3496
@<TRIPOS>BOND
     1    35    36    1
     2    36    29    1
     3    29    30    1
     4    30    31    1
     5    31    32    1
     6    32    33    1
     7    33    34    1
     8    34    27    1
     9     1    27    1
    10     1     2    1
    11     3     2    1
    12     3     4    1
    13     4     5    1
    14     5     6    1
    15     5     7    1
    16     5     8    1
    17     8     9    1
    18     9    11    1
    19    11    12    2
    20    11    13   am
    21    13    14    1
    22    14    15    1
    23    15    16    1
    24    16    17   ar
    25    17    18   ar
    26    18    19   ar
    27    19    23    1
    28    23    24    1
    29    23    25    1
    30    23    26    1
    31    19    20   ar
    32    20    21   ar
    33    21    22    1
    34     9    10    1
    35    34    29    1
    36    10     1    1
    37     9     3    1
    38    22    13    1
    39    21    16   ar
    40    27    28    1
@<TRIPOS>MOLECULE
*****
 36 40 0 0 0
SMALL
GASTEIGER

@<TRIPOS>ATOM
      1 C         142.2280  143.4512  161.4673 C.3     1  UNL1        0.0545
      2 C         141.3459  144.6387  161.7158 C.3     1  UNL1        0.0164
      3 C         140.2022  144.1941  162.5786 C.3     1  UNL1        0.0151
      4 C         138.9503  144.6532  163.2654 C.3     1  UNL1        0.0671
      5 C         138.3518  143.4748  163.9747 C.3     1  UNL1        0.2644
      6 F         137.2986  144.4589  164.3895 F       1  UNL1       -0.2043
      7 F         137.5331  142.5020  164.7706 F       1  UNL1       -0.2043
      8 C         139.2339  142.2873  163.7262 C.3     1  UNL1        0.0752
      9 C         140.3775  142.7318  162.8634 C.3     1  UNL1        0.0758
     10 C         141.6295  142.2727  162.1765 C.3     1  UNL1        0.0245
     11 C         140.5528  141.2696  163.1481 C.2     1  UNL1        0.2252
     12 O         140.1831  140.2535  162.1085 O.2     1  UNL1       -0.2749
     13 N         141.0978  140.8234  164.4725 N.am    1  UNL1       -0.2750
     14 C         141.2731  139.3612  164.7572 C.3     1  UNL1        0.1000
     15 C         141.8181  138.9151  166.0816 C.3     1  UNL1        0.0670
     16 C         142.1878  139.9312  167.1212 C.ar    1  UNL1        0.0583
     17 N         142.7328  139.4850  168.4456 N.ar    1  UNL1       -0.2484
     18 C         143.1025  140.5011  169.4852 C.ar    1  UNL1        0.1023
     19 C         142.9271  141.9634  169.2004 C.ar    1  UNL1        0.0902
     20 C         142.3822  142.4095  167.8761 C.ar    1  UNL1        0.0040
     21 C         142.0125  141.3934  166.8365 C.ar    1  UNL1        0.0113
     22 C         141.4675  141.8395  165.5121 C.3     1  UNL1        0.1213
     23 C         143.2968  142.9796  170.2400 C.3     1  UNL1        0.4200
     24 F         143.6665  143.9957  171.2797 F       1  UNL1       -0.1658
     25 F         141.8623  143.4084  170.3310 F       1  UNL1       -0.1658
     26 F         144.7313  142.5507  170.1491 F       1  UNL1       -0.1658
     27 N         143.4875  143.4435  160.6526 N.3     1  UNL1       -0.2975
     28 H         143.7242  144.4181  160.4673 H       1  UNL1        0.1232
     29 C         143.8885  141.2773  159.2754 C.3     1  UNL1        0.1591
     30 C         143.9239  140.5646  157.9560 C.3     1  UNL1        0.1729
     31 O         143.5936  141.3056  156.6943 O.3     1  UNL1       -0.3511
     32 C         143.2279  142.7592  156.7520 C.3     1  UNL1        0.1437
     33 C         143.1925  143.4718  158.0714 C.3     1  UNL1        0.0503
     34 C         143.5228  142.7308  159.3332 C.3     1  UNL1        0.0865
     35 C         143.5150  139.2512  160.8583 C.3     1  UNL1        0.1742
     36 O         144.2188  140.5363  160.5371 O.3     1  UNL1       -0.3496
@<TRIPOS>BOND
     1    35    36    1
     2    36    29    1
     3    29    30    1
     4    30    31    1
     5    31    32    1
     6    32    33    1
     7    33    34    1
     8    34    27    1
     9     1    27    1
    10     1     2    1
    11     3     2    1
    12     3     4    1
    13     4     5    1
    14     5     6    1
    15     5     7    1
    16     5     8    1
    17     8     9    1
    18     9    11    1
    19    11    12    2
    20    11    13   am
    21    13    14    1
    22    14    15    1
    23    15    16    1
    24    16    17   ar
    25    17    18   ar
    26    18    19   ar
    27    19    23    1
    28    23    24    1
    29    23    25    1
    30    23    26    1
    31    19    20   ar
    32    20    21   ar
    33    21    22    1
    34     9    10    1
    35    34    29    1
    36    10     1    1
    37     9     3    1
    38    22    13    1
    39    21    16   ar
    40    27    28    1
