@<TRIPOS>MOLECULE
*****
 38 42 0 0 0
SMALL
GASTEIGER

@<TRIPOS>ATOM
      1 C         142.4707  139.5860  162.6008 C.ar    1  UNL1        0.1200
      2 N         141.6082  138.8687  161.6050 N.ar    1  UNL1       -0.2309
      3 C         142.3301  138.8565  160.2902 C.ar    1  UNL1        0.0997
      4 C         143.6388  139.5664  160.4734 C.ar    1  UNL1        0.0961
      5 N         143.7257  140.0172  161.9013 N.ar    1  UNL1       -0.3123
      6 C         141.8309  138.2423  159.0160 C.ar    1  UNL1        0.0193
      7 C         140.4350  138.5234  158.5444 C.ar    1  UNL1        0.0038
      8 C         139.9359  137.9092  157.2702 C.ar    1  UNL1        0.0296
      9 C         140.8327  137.0140  156.4676 C.ar    1  UNL1        0.1440
     10 F         140.3335  136.3998  155.1934 F       1  UNL1       -0.2042
     11 C         142.2286  136.7329  156.9391 C.ar    1  UNL1        0.0988
     12 C         142.7278  137.3471  158.2133 C.ar    1  UNL1        0.0077
     13 C         143.1253  135.8377  156.1365 C.3     1  UNL1        0.4207
     14 F         144.0221  134.9424  155.3337 F       1  UNL1       -0.1658
     15 F         142.2807  134.6560  156.5107 F       1  UNL1       -0.1658
     16 F         143.9701  137.0193  155.7622 F       1  UNL1       -0.1658
     17 N         141.4693  140.3164  166.9267 N.pl3   1  UNL1       -0.2924
     18 C         142.3928  139.1962  166.5494 C.3     1  UNL1        0.0926
     19 C         142.7266  138.9527  165.1074 C.3     1  UNL1        0.0290
     20 C         142.1369  139.8295  164.0427 C.3     1  UNL1        0.0603
     21 C         141.2134  140.9497  164.4200 C.3     1  UNL1        0.0290
     22 C         140.8796  141.1931  165.8619 C.3     1  UNL1        0.0926
     23 N         142.4952  142.6596  171.4496 N.pl3   1  UNL1       -0.3418
     24 C         141.6484  141.7315  170.6301 C.ar    1  UNL1        0.1405
     25 N         140.4678  141.0469  171.2526 N.ar    1  UNL1       -0.2085
     26 C         139.6210  140.1188  170.4331 C.ar    1  UNL1        0.2013
     27 N         139.9548  139.8753  168.9911 N.ar    1  UNL1       -0.2080
     28 C         141.1354  140.5599  168.3687 C.ar    1  UNL1        0.1468
     29 C         141.9822  141.4880  169.1882 C.ar    1  UNL1        0.1202
     30 CL        143.1629  142.1726  168.5656 Cl      1  UNL1       -0.0764
     31 H         142.2761  142.8194  172.3960 H       1  UNL1        0.1437
     32 H         143.2701  143.1089  171.0410 H       1  UNL1        0.1437
     33 C         144.8671  140.7675  162.5211 C.3     1  UNL1        0.1245
     34 C         145.0749  142.2176  162.1983 C.3     1  UNL1        0.0969
     35 N         144.4833  143.2750  163.0826 N.3     1  UNL1       -0.2710
     36 C         144.0097  144.6838  162.8804 C.3     1  UNL1        0.0736
     37 C         143.6467  144.7703  164.3332 C.3     1  UNL1        0.0346
     38 C         144.1203  143.3615  164.5354 C.3     1  UNL1        0.0736
@<TRIPOS>BOND
     1    23    24    1
     2    24    25   ar
     3    25    26   ar
     4    26    27   ar
     5    27    28   ar
     6    28    17    1
     7    17    18    1
     8    18    19    1
     9    19    20    1
    10    20     1    1
    11     1     2   ar
    12     2     3   ar
    13     3     6    1
    14     6     7   ar
    15     7     8   ar
    16     8     9   ar
    17     9    10    1
    18     9    11   ar
    19    11    13    1
    20    13    14    1
    21    13    15    1
    22    13    16    1
    23    11    12   ar
    24     3     4   ar
    25     4     5   ar
    26     5    33    1
    27    33    34    1
    28    34    35    1
    29    35    36    1
    30    36    37    1
    31    37    38    1
    32    20    21    1
    33    21    22    1
    34    28    29   ar
    35    29    30    1
    36    29    24   ar
    37    22    17    1
    38     5     1   ar
    39    38    35    1
    40    12     6   ar
    41    23    31    1
    42    23    32    1
@<TRIPOS>MOLECULE
*****
 38 42 0 0 0
SMALL
GASTEIGER

@<TRIPOS>ATOM
      1 C         142.9677  140.4561  163.6284 C.ar    1  UNL1        0.1200
      2 N         142.2425  140.0720  164.8840 N.ar    1  UNL1       -0.2309
      3 C         142.7828  140.9085  166.0057 C.ar    1  UNL1        0.0997
      4 C         143.8420  141.8095  165.4433 C.ar    1  UNL1        0.0961
      5 N         143.9563  141.5299  163.9741 N.ar    1  UNL1       -0.3123
      6 C         142.3415  140.8535  167.4383 C.ar    1  UNL1        0.0193
      7 C         142.6298  139.6361  168.2657 C.ar    1  UNL1        0.0038
      8 C         142.1885  139.5812  169.6983 C.ar    1  UNL1        0.0296
      9 C         141.4588  140.7437  170.3033 C.ar    1  UNL1        0.1440
     10 F         141.0175  140.6888  171.7358 F       1  UNL1       -0.2042
     11 C         141.1704  141.9611  169.4758 C.ar    1  UNL1        0.0988
     12 C         141.6118  142.0160  168.0433 C.ar    1  UNL1        0.0077
     13 C         140.4408  143.1236  170.0809 C.3     1  UNL1        0.4207
     14 F         139.7110  144.2861  170.6861 F       1  UNL1       -0.1658
     15 F         141.6870  143.9534  169.9897 F       1  UNL1       -0.1658
     16 F         139.1945  142.2938  170.1722 F       1  UNL1       -0.1658
     17 N         142.2957  138.6957  159.5418 N.pl3   1  UNL1       -0.2924
     18 C         142.0213  140.1500  159.7864 C.3     1  UNL1        0.0926
     19 C         142.2453  140.7368  161.1486 C.3     1  UNL1        0.0290
     20 C         142.7437  139.8693  162.2662 C.3     1  UNL1        0.0603
     21 C         143.0181  138.4150  162.0216 C.3     1  UNL1        0.0290
     22 C         142.7941  137.8283  160.6595 C.3     1  UNL1        0.0926
     23 N         139.0593  136.9467  155.8722 N.pl3   1  UNL1       -0.3418
     24 C         140.4535  137.2344  156.3448 C.ar    1  UNL1        0.1405
     25 N         141.6237  136.9353  155.4554 N.ar    1  UNL1       -0.2085
     26 C         143.0179  137.2230  155.9280 C.ar    1  UNL1        0.2013
     27 N         143.2419  137.8098  157.2902 N.ar    1  UNL1       -0.2080
     28 C         142.0718  138.1089  158.1796 C.ar    1  UNL1        0.1468
     29 C         140.6775  137.8212  157.7070 C.ar    1  UNL1        0.1202
     30 CL        139.5073  138.1203  158.5965 Cl      1  UNL1       -0.0764
     31 H         138.9123  136.5616  154.9781 H       1  UNL1        0.1437
     32 H         138.2913  137.1430  156.4560 H       1  UNL1        0.1437
     33 C         144.8944  142.2056  163.0184 C.3     1  UNL1        0.1245
     34 C         144.5092  143.5095  162.3848 C.3     1  UNL1        0.0969
     35 N         143.2477  144.2038  162.8049 N.3     1  UNL1       -0.2710
     36 C         141.8236  144.1931  162.3338 C.3     1  UNL1        0.0736
     37 C         141.4637  145.1856  163.3993 C.3     1  UNL1        0.0346
     38 C         142.8877  145.1963  163.8704 C.3     1  UNL1        0.0736
@<TRIPOS>BOND
     1    23    24    1
     2    24    25   ar
     3    25    26   ar
     4    26    27   ar
     5    27    28   ar
     6    28    17    1
     7    17    18    1
     8    18    19    1
     9    19    20    1
    10    20     1    1
    11     1     2   ar
    12     2     3   ar
    13     3     6    1
    14     6     7   ar
    15     7     8   ar
    16     8     9   ar
    17     9    10    1
    18     9    11   ar
    19    11    13    1
    20    13    14    1
    21    13    15    1
    22    13    16    1
    23    11    12   ar
    24     3     4   ar
    25     4     5   ar
    26     5    33    1
    27    33    34    1
    28    34    35    1
    29    35    36    1
    30    36    37    1
    31    37    38    1
    32    20    21    1
    33    21    22    1
    34    28    29   ar
    35    29    30    1
    36    29    24   ar
    37    22    17    1
    38     5     1   ar
    39    38    35    1
    40    12     6   ar
    41    23    31    1
    42    23    32    1
@<TRIPOS>MOLECULE
*****
 38 42 0 0 0
SMALL
GASTEIGER

@<TRIPOS>ATOM
      1 C         141.7180  139.4505  163.6380 C.ar    1  UNL1        0.1200
      2 N         142.2372  140.0986  164.8872 N.ar    1  UNL1       -0.2309
      3 C         141.3999  139.6244  166.0379 C.ar    1  UNL1        0.0997
      4 C         140.3632  138.6832  165.4998 C.ar    1  UNL1        0.0961
      5 N         140.5598  138.5758  164.0166 N.ar    1  UNL1       -0.3123
      6 C         141.5695  140.0216  167.4743 C.ar    1  UNL1        0.0193
      7 C         142.4480  139.2088  168.3786 C.ar    1  UNL1        0.0038
      8 C         142.6176  139.6060  169.8150 C.ar    1  UNL1        0.0296
      9 C         141.9087  140.8160  170.3473 C.ar    1  UNL1        0.1440
     10 F         142.0783  141.2132  171.7837 F       1  UNL1       -0.2042
     11 C         141.0302  141.6288  169.4430 C.ar    1  UNL1        0.0988
     12 C         140.8606  141.2316  168.0066 C.ar    1  UNL1        0.0077
     13 C         140.3213  142.8387  169.9753 C.3     1  UNL1        0.4207
     14 F         139.6123  144.0488  170.5077 F       1  UNL1       -0.1658
     15 F         139.1051  142.0051  170.2509 F       1  UNL1       -0.1658
     16 F         141.5374  143.6725  169.6998 F       1  UNL1       -0.1658
     17 N         143.3488  140.0289  159.4840 N.pl3   1  UNL1       -0.2924
     18 C         142.0575  140.6811  159.8803 C.3     1  UNL1        0.0926
     19 C         141.5139  140.4884  161.2650 C.3     1  UNL1        0.0290
     20 C         142.2616  139.6433  162.2534 C.3     1  UNL1        0.0603
     21 C         143.5530  138.9911  161.8570 C.3     1  UNL1        0.0290
     22 C         144.0965  139.1839  160.4723 C.3     1  UNL1        0.0926
     23 N         145.9384  142.9188  156.0282 N.pl3   1  UNL1       -0.3418
     24 C         145.1872  141.6667  156.3714 C.ar    1  UNL1        0.1405
     25 N         144.9796  140.6073  155.3300 N.ar    1  UNL1       -0.2085
     26 C         144.2285  139.3551  155.6732 C.ar    1  UNL1        0.2013
     27 N         143.6848  139.1623  157.0578 N.ar    1  UNL1       -0.2080
     28 C         143.8924  140.2217  158.0993 C.ar    1  UNL1        0.1468
     29 C         144.6436  141.4738  157.7561 C.ar    1  UNL1        0.1202
     30 CL        144.8512  142.5332  158.7976 Cl      1  UNL1       -0.0764
     31 H         146.2952  143.0454  155.1194 H       1  UNL1        0.1437
     32 H         146.0746  143.6141  156.7118 H       1  UNL1        0.1437
     33 C         139.7419  137.7403  163.0771 C.3     1  UNL1        0.1245
     34 C         138.3922  138.2181  162.6296 C.3     1  UNL1        0.0969
     35 N         138.0749  139.6841  162.6383 N.3     1  UNL1       -0.2710
     36 C         137.8252  140.7216  161.5842 C.3     1  UNL1        0.0736
     37 C         137.6261  141.7573  162.6507 C.3     1  UNL1        0.0346
     38 C         137.8757  140.7198  163.7048 C.3     1  UNL1        0.0736
@<TRIPOS>BOND
     1    23    24    1
     2    24    25   ar
     3    25    26   ar
     4    26    27   ar
     5    27    28   ar
     6    28    17    1
     7    17    18    1
     8    18    19    1
     9    19    20    1
    10    20     1    1
    11     1     2   ar
    12     2     3   ar
    13     3     6    1
    14     6     7   ar
    15     7     8   ar
    16     8     9   ar
    17     9    10    1
    18     9    11   ar
    19    11    13    1
    20    13    14    1
    21    13    15    1
    22    13    16    1
    23    11    12   ar
    24     3     4   ar
    25     4     5   ar
    26     5    33    1
    27    33    34    1
    28    34    35    1
    29    35    36    1
    30    36    37    1
    31    37    38    1
    32    20    21    1
    33    21    22    1
    34    28    29   ar
    35    29    30    1
    36    29    24   ar
    37    22    17    1
    38     5     1   ar
    39    38    35    1
    40    12     6   ar
    41    23    31    1
    42    23    32    1
@<TRIPOS>MOLECULE
*****
 38 42 0 0 0
SMALL
GASTEIGER

@<TRIPOS>ATOM
      1 C         140.6251  139.5433  163.2421 C.ar    1  UNL1        0.1200
      2 N         141.2543  139.9207  164.5504 N.ar    1  UNL1       -0.2309
      3 C         140.1948  139.8550  165.6103 C.ar    1  UNL1        0.0997
      4 C         138.9109  139.4370  164.9569 C.ar    1  UNL1        0.0961
      5 N         139.1768  139.2444  163.4933 N.ar    1  UNL1       -0.3123
      6 C         140.3858  140.1547  167.0676 C.ar    1  UNL1        0.0193
      7 C         139.2772  139.8826  168.0408 C.ar    1  UNL1        0.0038
      8 C         139.4682  140.1823  169.4980 C.ar    1  UNL1        0.0296
      9 C         140.7677  140.7540  169.9821 C.ar    1  UNL1        0.1440
     10 F         140.9586  141.0537  171.4394 F       1  UNL1       -0.2042
     11 C         141.8763  141.0261  169.0089 C.ar    1  UNL1        0.0988
     12 C         141.6853  140.7264  167.5517 C.ar    1  UNL1        0.0077
     13 C         143.1757  141.5979  169.4931 C.3     1  UNL1        0.4207
     14 F         144.4752  142.1697  169.9773 F       1  UNL1       -0.1658
     15 F         142.8779  142.8816  168.7765 F       1  UNL1       -0.1658
     16 F         143.4736  140.3142  170.2097 F       1  UNL1       -0.1658
     17 N         142.7154  139.3431  159.2621 N.pl3   1  UNL1       -0.2924
     18 C         141.6530  140.3748  159.5001 C.3     1  UNL1        0.0926
     19 C         140.9562  140.4416  160.8268 C.3     1  UNL1        0.0290
     20 C         141.3219  139.4766  161.9154 C.3     1  UNL1        0.0603
     21 C         142.3843  138.4448  161.6773 C.3     1  UNL1        0.0290
     22 C         143.0811  138.3781  160.3507 C.3     1  UNL1        0.0926
     23 N         143.3283  137.1147  154.6082 N.pl3   1  UNL1       -0.3418
     24 C         143.7187  138.1621  155.6085 C.ar    1  UNL1        0.1405
     25 N         144.8058  139.1427  155.2821 N.ar    1  UNL1       -0.2085
     26 C         145.1961  140.1901  156.2824 C.ar    1  UNL1        0.2013
     27 N         144.4994  140.2569  157.6090 N.ar    1  UNL1       -0.2080
     28 C         143.4123  139.2763  157.9354 C.ar    1  UNL1        0.1468
     29 C         143.0219  138.2289  156.9351 C.ar    1  UNL1        0.1202
     30 CL        141.9348  137.2482  157.2615 Cl      1  UNL1       -0.0764
     31 H         143.7857  137.0708  153.7375 H       1  UNL1        0.1437
     32 H         142.6148  136.4710  154.8224 H       1  UNL1        0.1437
     33 C         138.1711  138.8262  162.4620 C.3     1  UNL1        0.1245
     34 C         137.3952  139.8643  161.7068 C.3     1  UNL1        0.0969
     35 N         137.5883  141.3189  162.0181 N.3     1  UNL1       -0.2710
     36 C         138.0998  142.5072  161.2590 C.3     1  UNL1        0.0736
     37 C         137.8615  143.3759  162.4584 C.3     1  UNL1        0.0346
     38 C         137.3501  142.1875  163.2174 C.3     1  UNL1        0.0736
@<TRIPOS>BOND
     1    23    24    1
     2    24    25   ar
     3    25    26   ar
     4    26    27   ar
     5    27    28   ar
     6    28    17    1
     7    17    18    1
     8    18    19    1
     9    19    20    1
    10    20     1    1
    11     1     2   ar
    12     2     3   ar
    13     3     6    1
    14     6     7   ar
    15     7     8   ar
    16     8     9   ar
    17     9    10    1
    18     9    11   ar
    19    11    13    1
    20    13    14    1
    21    13    15    1
    22    13    16    1
    23    11    12   ar
    24     3     4   ar
    25     4     5   ar
    26     5    33    1
    27    33    34    1
    28    34    35    1
    29    35    36    1
    30    36    37    1
    31    37    38    1
    32    20    21    1
    33    21    22    1
    34    28    29   ar
    35    29    30    1
    36    29    24   ar
    37    22    17    1
    38     5     1   ar
    39    38    35    1
    40    12     6   ar
    41    23    31    1
    42    23    32    1
@<TRIPOS>MOLECULE
*****
 38 42 0 0 0
SMALL
GASTEIGER

@<TRIPOS>ATOM
      1 C         142.5154  139.6391  162.0422 C.ar    1  UNL1        0.1200
      2 N         141.7851  138.7131  161.1152 N.ar    1  UNL1       -0.2309
      3 C         142.3995  138.8415  159.7528 C.ar    1  UNL1        0.0997
      4 C         143.5095  139.8469  159.8378 C.ar    1  UNL1        0.0961
      5 N         143.5811  140.3398  161.2527 N.ar    1  UNL1       -0.3123
      6 C         141.9779  138.0956  158.5216 C.ar    1  UNL1        0.0193
      7 C         140.6801  138.4316  157.8487 C.ar    1  UNL1        0.0038
      8 C         140.2586  137.6856  156.6175 C.ar    1  UNL1        0.0296
      9 C         141.1348  136.6037  156.0593 C.ar    1  UNL1        0.1440
     10 F         140.7132  135.8578  154.8281 F       1  UNL1       -0.2042
     11 C         142.4326  136.2678  156.7322 C.ar    1  UNL1        0.0988
     12 C         142.8542  137.0137  157.9634 C.ar    1  UNL1        0.0077
     13 C         143.3088  135.1859  156.1739 C.3     1  UNL1        0.4207
     14 F         144.1851  134.1039  155.6156 F       1  UNL1       -0.1658
     15 F         144.2456  136.2243  155.6316 F       1  UNL1       -0.1658
     16 F         142.3721  134.1474  156.7161 F       1  UNL1       -0.1658
     17 N         141.6594  140.2140  166.4224 N.pl3   1  UNL1       -0.2924
     18 C         142.2510  138.9240  165.9369 C.3     1  UNL1        0.0926
     19 C         142.5364  138.7323  164.4768 C.3     1  UNL1        0.0290
     20 C         142.2301  139.8307  163.5022 C.3     1  UNL1        0.0603
     21 C         141.6384  141.1208  163.9878 C.3     1  UNL1        0.0290
     22 C         141.3531  141.3124  165.4479 C.3     1  UNL1        0.0926
     23 N         138.3619  139.9813  170.4315 N.pl3   1  UNL1       -0.3418
     24 C         139.7253  140.2893  169.8871 C.ar    1  UNL1        0.1405
     25 N         140.8032  140.7889  170.8026 N.ar    1  UNL1       -0.2085
     26 C         142.1666  141.0969  170.2582 C.ar    1  UNL1        0.2013
     27 N         142.4520  140.9053  168.7981 N.ar    1  UNL1       -0.2080
     28 C         141.3740  140.4056  167.8826 C.ar    1  UNL1        0.1468
     29 C         140.0107  140.0977  168.4270 C.ar    1  UNL1        0.1202
     30 CL        138.9327  139.5980  167.5113 Cl      1  UNL1       -0.0764
     31 H         138.1746  140.1071  171.3898 H       1  UNL1        0.1437
     32 H         137.6544  139.6534  169.8306 H       1  UNL1        0.1437
     33 C         144.5486  141.3551  161.7847 C.3     1  UNL1        0.1245
     34 C         144.3849  142.8040  161.4322 C.3     1  UNL1        0.0969
     35 N         143.6747  143.7296  162.3750 N.3     1  UNL1       -0.2710
     36 C         142.3738  144.4757  162.3500 C.3     1  UNL1        0.0736
     37 C         142.6705  145.0386  163.7083 C.3     1  UNL1        0.0346
     38 C         143.9715  144.2925  163.7333 C.3     1  UNL1        0.0736
@<TRIPOS>BOND
     1    23    24    1
     2    24    25   ar
     3    25    26   ar
     4    26    27   ar
     5    27    28   ar
     6    28    17    1
     7    17    18    1
     8    18    19    1
     9    19    20    1
    10    20     1    1
    11     1     2   ar
    12     2     3   ar
    13     3     6    1
    14     6     7   ar
    15     7     8   ar
    16     8     9   ar
    17     9    10    1
    18     9    11   ar
    19    11    13    1
    20    13    14    1
    21    13    15    1
    22    13    16    1
    23    11    12   ar
    24     3     4   ar
    25     4     5   ar
    26     5    33    1
    27    33    34    1
    28    34    35    1
    29    35    36    1
    30    36    37    1
    31    37    38    1
    32    20    21    1
    33    21    22    1
    34    28    29   ar
    35    29    30    1
    36    29    24   ar
    37    22    17    1
    38     5     1   ar
    39    38    35    1
    40    12     6   ar
    41    23    31    1
    42    23    32    1
@<TRIPOS>MOLECULE
*****
 38 42 0 0 0
SMALL
GASTEIGER

@<TRIPOS>ATOM
      1 C         140.1035  142.5059  162.5685 C.ar    1  UNL1        0.1200
      2 N         140.9792  143.2422  161.5984 N.ar    1  UNL1       -0.2309
      3 C         140.3298  143.1795  160.2478 C.ar    1  UNL1        0.0997
      4 C         139.0527  142.4044  160.3830 C.ar    1  UNL1        0.0961
      5 N         138.9129  141.9881  161.8173 N.ar    1  UNL1       -0.3123
      6 C         140.8637  143.7855  158.9838 C.ar    1  UNL1        0.0193
      7 C         142.2921  143.5561  158.5871 C.ar    1  UNL1        0.0038
      8 C         142.8260  144.1621  157.3231 C.ar    1  UNL1        0.0296
      9 C         141.9316  144.9974  156.4558 C.ar    1  UNL1        0.1440
     10 F         142.4655  145.6034  155.1918 F       1  UNL1       -0.2042
     11 C         140.5033  145.2268  156.8525 C.ar    1  UNL1        0.0988
     12 C         139.9693  144.6208  158.1165 C.ar    1  UNL1        0.0077
     13 C         139.6090  146.0621  155.9851 C.3     1  UNL1        0.4207
     14 F         138.7146  146.8975  155.1177 F       1  UNL1       -0.1658
     15 F         139.6099  144.9822  154.9440 F       1  UNL1       -0.1658
     16 F         139.6079  147.1421  157.0261 F       1  UNL1       -0.1658
     17 N         140.9071  141.9482  166.9609 N.pl3   1  UNL1       -0.2924
     18 C         139.9386  142.9981  166.5030 C.3     1  UNL1        0.0926
     19 C         139.6707  143.1840  165.0388 C.3     1  UNL1        0.0290
     20 C         140.3713  142.3200  164.0326 C.3     1  UNL1        0.0603
     21 C         141.3398  141.2700  164.4905 C.3     1  UNL1        0.0290
     22 C         141.6077  141.0841  165.9546 C.3     1  UNL1        0.0926
     23 N         139.9089  139.5208  171.4455 N.pl3   1  UNL1       -0.3418
     24 C         140.6759  140.5485  170.6673 C.ar    1  UNL1        0.1405
     25 N         141.7107  141.3903  171.3532 N.ar    1  UNL1       -0.2085
     26 C         142.4776  142.4181  170.5751 C.ar    1  UNL1        0.2013
     27 N         142.2098  142.6040  169.1110 N.ar    1  UNL1       -0.2080
     28 C         141.1750  141.7622  168.4250 C.ar    1  UNL1        0.1468
     29 C         140.4080  140.7345  169.2032 C.ar    1  UNL1        0.1202
     30 CL        139.3732  139.8927  168.5172 Cl      1  UNL1       -0.0764
     31 H         140.0847  139.3987  172.4064 H       1  UNL1        0.1437
     32 H         139.2298  138.9683  170.9952 H       1  UNL1        0.1437
     33 C         137.7811  141.1935  162.3983 C.3     1  UNL1        0.1245
     34 C         137.8289  139.6943  162.3778 C.3     1  UNL1        0.0969
     35 N         138.4508  138.9481  163.5207 N.3     1  UNL1       -0.2710
     36 C         139.2951  137.7149  163.6482 C.3     1  UNL1        0.0736
     37 C         139.3303  137.8929  165.1371 C.3     1  UNL1        0.0346
     38 C         138.4860  139.1261  165.0097 C.3     1  UNL1        0.0736
@<TRIPOS>BOND
     1    23    24    1
     2    24    25   ar
     3    25    26   ar
     4    26    27   ar
     5    27    28   ar
     6    28    17    1
     7    17    18    1
     8    18    19    1
     9    19    20    1
    10    20     1    1
    11     1     2   ar
    12     2     3   ar
    13     3     6    1
    14     6     7   ar
    15     7     8   ar
    16     8     9   ar
    17     9    10    1
    18     9    11   ar
    19    11    13    1
    20    13    14    1
    21    13    15    1
    22    13    16    1
    23    11    12   ar
    24     3     4   ar
    25     4     5   ar
    26     5    33    1
    27    33    34    1
    28    34    35    1
    29    35    36    1
    30    36    37    1
    31    37    38    1
    32    20    21    1
    33    21    22    1
    34    28    29   ar
    35    29    30    1
    36    29    24   ar
    37    22    17    1
    38     5     1   ar
    39    38    35    1
    40    12     6   ar
    41    23    31    1
    42    23    32    1
@<TRIPOS>MOLECULE
*****
 38 42 0 0 0
SMALL
GASTEIGER

@<TRIPOS>ATOM
      1 C         142.4101  140.7870  163.4052 C.ar    1  UNL1        0.1200
      2 N         142.0884  141.3320  164.7652 N.ar    1  UNL1       -0.2309
      3 C         142.3292  140.2441  165.7694 C.ar    1  UNL1        0.0997
      4 C         142.7998  139.0267  165.0300 C.ar    1  UNL1        0.0961
      5 N         142.8498  139.3623  163.5689 N.ar    1  UNL1       -0.3123
      6 C         142.1338  140.3542  167.2525 C.ar    1  UNL1        0.0193
      7 C         142.6413  139.2716  168.1583 C.ar    1  UNL1        0.0038
      8 C         142.4459  139.3817  169.6414 C.ar    1  UNL1        0.0296
      9 C         141.7430  140.5744  170.2187 C.ar    1  UNL1        0.1440
     10 F         141.5475  140.6845  171.7018 F       1  UNL1       -0.2042
     11 C         141.2354  141.6570  169.3129 C.ar    1  UNL1        0.0988
     12 C         141.4308  141.5469  167.8298 C.ar    1  UNL1        0.0077
     13 C         140.5325  142.8496  169.8903 C.3     1  UNL1        0.4207
     14 F         139.8295  144.0423  170.4678 F       1  UNL1       -0.1658
     15 F         139.2761  142.0420  170.0290 F       1  UNL1       -0.1658
     16 F         141.7888  143.6573  169.7517 F       1  UNL1       -0.1658
     17 N         142.1091  143.0321  159.5169 N.pl3   1  UNL1       -0.2924
     18 C         143.3150  143.2059  160.3918 C.3     1  UNL1        0.0926
     19 C         143.4154  142.4575  161.6880 C.3     1  UNL1        0.0290
     20 C         142.3098  141.5354  162.1091 C.3     1  UNL1        0.0603
     21 C         141.1038  141.3616  161.2341 C.3     1  UNL1        0.0290
     22 C         141.0035  142.1099  159.9380 C.3     1  UNL1        0.0926
     23 N         140.1826  146.9754  156.7350 N.pl3   1  UNL1       -0.3418
     24 C         141.0455  145.7521  156.8298 C.ar    1  UNL1        0.1405
     25 N         141.8079  145.2771  155.6286 N.ar    1  UNL1       -0.2085
     26 C         142.6708  144.0538  155.7234 C.ar    1  UNL1        0.2013
     27 N         142.7712  143.3055  157.0195 N.ar    1  UNL1       -0.2080
     28 C         142.0087  143.7804  158.2207 C.ar    1  UNL1        0.1468
     29 C         141.1459  145.0037  158.1259 C.ar    1  UNL1        0.1202
     30 CL        140.3834  145.4787  159.3272 Cl      1  UNL1       -0.0764
     31 H         140.1167  147.4666  155.8843 H       1  UNL1        0.1437
     32 H         139.6822  147.2871  157.5234 H       1  UNL1        0.1437
     33 C         143.2663  138.4358  162.4652 C.3     1  UNL1        0.1245
     34 C         142.2270  137.7646  161.6170 C.3     1  UNL1        0.0969
     35 N         140.7891  137.7754  162.0439 N.3     1  UNL1       -0.2710
     36 C         140.0571  137.4555  163.3134 C.3     1  UNL1        0.0736
     37 C         138.7556  137.7908  162.6474 C.3     1  UNL1        0.0346
     38 C         139.4876  138.1107  161.3779 C.3     1  UNL1        0.0736
@<TRIPOS>BOND
     1    23    24    1
     2    24    25   ar
     3    25    26   ar
     4    26    27   ar
     5    27    28   ar
     6    28    17    1
     7    17    18    1
     8    18    19    1
     9    19    20    1
    10    20     1    1
    11     1     2   ar
    12     2     3   ar
    13     3     6    1
    14     6     7   ar
    15     7     8   ar
    16     8     9   ar
    17     9    10    1
    18     9    11   ar
    19    11    13    1
    20    13    14    1
    21    13    15    1
    22    13    16    1
    23    11    12   ar
    24     3     4   ar
    25     4     5   ar
    26     5    33    1
    27    33    34    1
    28    34    35    1
    29    35    36    1
    30    36    37    1
    31    37    38    1
    32    20    21    1
    33    21    22    1
    34    28    29   ar
    35    29    30    1
    36    29    24   ar
    37    22    17    1
    38     5     1   ar
    39    38    35    1
    40    12     6   ar
    41    23    31    1
    42    23    32    1
@<TRIPOS>MOLECULE
*****
 38 42 0 0 0
SMALL
GASTEIGER

@<TRIPOS>ATOM
      1 C         140.0072  141.1513  162.9533 C.ar    1  UNL1        0.1200
      2 N         140.9416  141.0489  164.1223 N.ar    1  UNL1       -0.2309
      3 C         140.4592  141.9911  165.1851 C.ar    1  UNL1        0.0997
      4 C         139.2267  142.6758  164.6729 C.ar    1  UNL1        0.0961
      5 N         138.9474  142.1567  163.2936 N.ar    1  UNL1       -0.3123
      6 C         141.0973  142.2102  166.5248 C.ar    1  UNL1        0.0193
      7 C         142.5795  142.0450  166.6856 C.ar    1  UNL1        0.0038
      8 C         143.2176  142.2641  168.0254 C.ar    1  UNL1        0.0296
      9 C         142.3735  142.6484  169.2042 C.ar    1  UNL1        0.1440
     10 F         143.0115  142.8674  170.5439 F       1  UNL1       -0.2042
     11 C         140.8913  142.8136  169.0434 C.ar    1  UNL1        0.0988
     12 C         140.2532  142.5945  167.7037 C.ar    1  UNL1        0.0077
     13 C         140.0472  143.1978  170.2223 C.3     1  UNL1        0.4207
     14 F         139.2031  143.5822  171.4013 F       1  UNL1       -0.1658
     15 F         140.3457  144.6451  169.9643 F       1  UNL1       -0.1658
     16 F         139.7487  141.7507  170.4804 F       1  UNL1       -0.1658
     17 N         140.3274  138.8466  159.1016 N.pl3   1  UNL1       -0.2924
     18 C         139.4541  138.3375  160.2098 C.3     1  UNL1        0.0926
     19 C         139.3473  139.1057  161.4937 C.3     1  UNL1        0.0290
     20 C         140.1139  140.3830  161.6694 C.3     1  UNL1        0.0603
     21 C         140.9872  140.8921  160.5611 C.3     1  UNL1        0.0290
     22 C         141.0939  140.1239  159.2772 C.3     1  UNL1        0.0926
     23 N         143.0703  135.8392  155.8717 N.pl3   1  UNL1       -0.3418
     24 C         141.8056  136.5747  156.2027 C.ar    1  UNL1        0.1405
     25 N         140.6477  136.5420  155.2498 N.ar    1  UNL1       -0.2085
     26 C         139.3830  137.2775  155.5808 C.ar    1  UNL1        0.2013
     27 N         139.2762  138.0457  156.8647 N.ar    1  UNL1       -0.2080
     28 C         140.4341  138.0784  157.8176 C.ar    1  UNL1        0.1468
     29 C         141.6988  137.3429  157.4866 C.ar    1  UNL1        0.1202
     30 CL        142.8568  137.3756  158.4396 Cl      1  UNL1       -0.0764
     31 H         143.1404  135.3350  155.0291 H       1  UNL1        0.1437
     32 H         143.8303  135.8606  156.4972 H       1  UNL1        0.1437
     33 C         137.8083  142.5705  162.4099 C.3     1  UNL1        0.1245
     34 C         138.0808  143.0965  161.0318 C.3     1  UNL1        0.0969
     35 N         139.2163  144.0496  160.8038 N.3     1  UNL1       -0.2710
     36 C         140.1428  144.3417  159.6609 C.3     1  UNL1        0.0736
     37 C         140.8223  145.3975  160.4815 C.3     1  UNL1        0.0346
     38 C         139.8958  145.1054  161.6244 C.3     1  UNL1        0.0736
@<TRIPOS>BOND
     1    23    24    1
     2    24    25   ar
     3    25    26   ar
     4    26    27   ar
     5    27    28   ar
     6    28    17    1
     7    17    18    1
     8    18    19    1
     9    19    20    1
    10    20     1    1
    11     1     2   ar
    12     2     3   ar
    13     3     6    1
    14     6     7   ar
    15     7     8   ar
    16     8     9   ar
    17     9    10    1
    18     9    11   ar
    19    11    13    1
    20    13    14    1
    21    13    15    1
    22    13    16    1
    23    11    12   ar
    24     3     4   ar
    25     4     5   ar
    26     5    33    1
    27    33    34    1
    28    34    35    1
    29    35    36    1
    30    36    37    1
    31    37    38    1
    32    20    21    1
    33    21    22    1
    34    28    29   ar
    35    29    30    1
    36    29    24   ar
    37    22    17    1
    38     5     1   ar
    39    38    35    1
    40    12     6   ar
    41    23    31    1
    42    23    32    1
@<TRIPOS>MOLECULE
*****
 38 42 0 0 0
SMALL
GASTEIGER

@<TRIPOS>ATOM
      1 C         139.4413  141.8757  163.3560 C.ar    1  UNL1        0.1200
      2 N         139.8343  141.0833  164.5675 N.ar    1  UNL1       -0.2309
      3 C         139.8552  142.0142  165.7435 C.ar    1  UNL1        0.0997
      4 C         139.4751  143.3820  165.2588 C.ar    1  UNL1        0.0961
      5 N         139.2193  143.2963  163.7832 N.ar    1  UNL1       -0.3123
      6 C         140.1963  141.6427  167.1562 C.ar    1  UNL1        0.0193
      7 C         139.5905  140.4189  167.7770 C.ar    1  UNL1        0.0038
      8 C         139.9316  140.0474  169.1896 C.ar    1  UNL1        0.0296
      9 C         140.8784  140.8997  169.9815 C.ar    1  UNL1        0.1440
     10 F         141.2195  140.5282  171.3941 F       1  UNL1       -0.2042
     11 C         141.4842  142.1235  169.3607 C.ar    1  UNL1        0.0988
     12 C         141.1431  142.4950  167.9480 C.ar    1  UNL1        0.0077
     13 C         142.4310  142.9757  170.1526 C.3     1  UNL1        0.4207
     14 F         143.3779  143.8280  170.9445 F       1  UNL1       -0.1658
     15 F         143.4395  141.8653  170.1419 F       1  UNL1       -0.1658
     16 F         141.4226  144.0861  170.1634 F       1  UNL1       -0.1658
     17 N         139.0048  140.2723  159.1741 N.pl3   1  UNL1       -0.2924
     18 C         140.2367  141.0362  159.5596 C.3     1  UNL1        0.0926
     19 C         140.3823  141.5707  160.9537 C.3     1  UNL1        0.0290
     20 C         139.2958  141.3412  161.9621 C.3     1  UNL1        0.0603
     21 C         138.0638  140.5773  161.5765 C.3     1  UNL1        0.0290
     22 C         137.9183  140.0429  160.1825 C.3     1  UNL1        0.0926
     23 N         137.2524  140.8033  154.3112 N.pl3   1  UNL1       -0.3418
     24 C         137.9831  140.0034  155.3487 C.ar    1  UNL1        0.1405
     25 N         138.5682  138.6690  154.9921 N.ar    1  UNL1       -0.2085
     26 C         139.2988  137.8691  156.0296 C.ar    1  UNL1        0.2013
     27 N         139.4444  138.4035  157.4235 N.ar    1  UNL1       -0.2080
     28 C         138.8593  139.7379  157.7801 C.ar    1  UNL1        0.1468
     29 C         138.1286  140.5378  156.7426 C.ar    1  UNL1        0.1202
     30 CL        137.5435  141.8722  157.0992 Cl      1  UNL1       -0.0764
     31 H         137.1569  140.4525  153.3963 H       1  UNL1        0.1437
     32 H         136.8684  141.6791  154.5452 H       1  UNL1        0.1437
     33 C         138.8129  144.4319  162.8915 C.3     1  UNL1        0.1245
     34 C         139.8543  145.3523  162.3272 C.3     1  UNL1        0.0969
     35 N         141.3068  145.1020  162.6059 N.3     1  UNL1       -0.2710
     36 C         142.2394  145.4178  163.7374 C.3     1  UNL1        0.0736
     37 C         143.3608  144.7481  162.9999 C.3     1  UNL1        0.0346
     38 C         142.4281  144.4323  161.8684 C.3     1  UNL1        0.0736
@<TRIPOS>BOND
     1    23    24    1
     2    24    25   ar
     3    25    26   ar
     4    26    27   ar
     5    27    28   ar
     6    28    17    1
     7    17    18    1
     8    18    19    1
     9    19    20    1
    10    20     1    1
    11     1     2   ar
    12     2     3   ar
    13     3     6    1
    14     6     7   ar
    15     7     8   ar
    16     8     9   ar
    17     9    10    1
    18     9    11   ar
    19    11    13    1
    20    13    14    1
    21    13    15    1
    22    13    16    1
    23    11    12   ar
    24     3     4   ar
    25     4     5   ar
    26     5    33    1
    27    33    34    1
    28    34    35    1
    29    35    36    1
    30    36    37    1
    31    37    38    1
    32    20    21    1
    33    21    22    1
    34    28    29   ar
    35    29    30    1
    36    29    24   ar
    37    22    17    1
    38     5     1   ar
    39    38    35    1
    40    12     6   ar
    41    23    31    1
    42    23    32    1
