@<TRIPOS>MOLECULE
*****
 33 37 0 0 0
SMALL
GASTEIGER

@<TRIPOS>ATOM
      1 C         141.2706  143.7319  160.5344 C.ar    1  UNL1        0.2400
      2 N         141.6877  142.3279  160.2109 N.ar    1  UNL1       -0.1929
      3 C         141.8222  141.8960  158.7808 C.ar    1  UNL1        0.1705
      4 C         141.5396  142.8682  157.6740 C.ar    1  UNL1        0.1851
      5 C         141.1225  144.2724  157.9974 C.ar    1  UNL1        0.1183
      6 N         140.9880  144.7042  159.4276 N.ar    1  UNL1       -0.2106
      7 O         141.6741  142.4364  156.2438 O.3     1  UNL1       -0.4695
      8 C         142.0912  141.0324  155.9204 C.3     1  UNL1        0.2277
      9 C         142.3738  140.0601  157.0272 C.3     1  UNL1        0.1477
     10 C         142.7909  138.6560  156.7037 C.3     1  UNL1        0.1657
     11 O         143.0734  137.6838  157.8105 O.3     1  UNL1       -0.3501
     12 C         142.9389  138.1156  159.2406 C.3     1  UNL1        0.1636
     13 C         142.5218  139.5197  159.5641 C.3     1  UNL1        0.1244
     14 N         142.2393  140.4919  158.4574 N.pl3   1  UNL1       -0.2839
     15 C         142.2365  144.7017  162.8304 C.ar    1  UNL1        0.2041
     16 N         141.6581  145.0038  164.1810 N.ar    1  UNL1       -0.2134
     17 C         140.2001  144.6527  164.1499 C.ar    1  UNL1        0.1003
     18 C         139.1246  144.7386  165.1919 C.ar    1  UNL1        0.0207
     19 C         137.7264  144.3054  164.8641 C.ar    1  UNL1        0.0016
     20 C         137.4037  143.7861  163.4943 C.ar    1  UNL1        0.0016
     21 C         138.4793  143.7002  162.4523 C.ar    1  UNL1        0.0192
     22 C         139.8775  144.1335  162.7801 C.ar    1  UNL1        0.0869
     23 N         141.1361  144.1637  161.9646 N.ar    1  UNL1       -0.2480
     24 C         144.5703  143.7183  162.2503 C.3     1  UNL1        0.1108
     25 N         143.6648  144.9022  162.4180 N.pl3   1  UNL1       -0.3023
     26 H         144.0078  145.8109  162.2575 H       1  UNL1        0.1497
     27 C         140.8400  145.2446  156.8907 C.3     1  UNL1        0.1486
     28 C         142.1971  145.8547  157.0801 C.3     1  UNL1        0.0298
     29 C         139.4828  144.6345  156.7013 C.3     1  UNL1        0.0298
     30 S         140.5574  146.2168  155.7840 S.O2    1  UNL1       -0.0064
     31 C         140.2748  147.1891  154.6772 C.3     1  UNL1        0.1764
     32 O         139.5538  146.9146  156.6532 O.2     1  UNL1       -0.1727
     33 O         141.5610  145.5189  154.9147 O.2     1  UNL1       -0.1727
@<TRIPOS>BOND
     1    24    25    1
     2    25    15    1
     3    15    16   ar
     4    16    17   ar
     5    17    18   ar
     6    18    19   ar
     7    19    20   ar
     8    20    21   ar
     9    21    22   ar
    10    22    23   ar
    11    23     1    1
    12     1     2   ar
    13     2     3   ar
    14     3     4   ar
    15     4     5   ar
    16     5    27    1
    17    27    28    1
    18    27    29    1
    19    27    30    1
    20    30    31    1
    21    30    32    2
    22    30    33    2
    23     5     6   ar
    24     4     7    1
    25     7     8    1
    26     9     8    1
    27     9    10    1
    28    10    11    1
    29    11    12    1
    30    12    13    1
    31    13    14    1
    32    23    15   ar
    33     6     1   ar
    34    14     9    1
    35    22    17   ar
    36    14     3    1
    37    25    26    1
@<TRIPOS>MOLECULE
*****
 33 37 0 0 0
SMALL
GASTEIGER

@<TRIPOS>ATOM
      1 C         139.3117  142.1583  159.9759 C.ar    1  UNL1        0.2400
      2 N         140.1554  141.0002  159.5323 N.ar    1  UNL1       -0.1929
      3 C         140.8736  141.0560  158.2166 C.ar    1  UNL1        0.1705
      4 C         140.7481  142.2700  157.3445 C.ar    1  UNL1        0.1851
      5 C         139.9044  143.4282  157.7882 C.ar    1  UNL1        0.1183
      6 N         139.1862  143.3723  159.1039 N.ar    1  UNL1       -0.2106
      7 O         141.4663  142.3259  156.0288 O.3     1  UNL1       -0.4695
      8 C         142.3101  141.1677  155.5852 C.3     1  UNL1        0.2277
      9 C         142.4356  139.9537  156.4572 C.3     1  UNL1        0.1477
     10 C         143.2793  138.7956  156.0136 C.3     1  UNL1        0.1657
     11 O         143.4048  137.5816  156.8856 O.3     1  UNL1       -0.3501
     12 C         142.6866  137.5258  158.2013 C.3     1  UNL1        0.1636
     13 C         141.8429  138.6839  158.6450 C.3     1  UNL1        0.1244
     14 N         141.7174  139.8978  157.7729 N.pl3   1  UNL1       -0.2839
     15 C         137.6277  141.0395  161.7245 C.ar    1  UNL1        0.2041
     16 N         137.1523  141.3798  163.1059 N.ar    1  UNL1       -0.2134
     17 C         137.8243  142.6531  163.5268 C.ar    1  UNL1        0.1003
     18 C         137.7403  143.4635  164.7862 C.ar    1  UNL1        0.0207
     19 C         138.5470  144.7206  164.9243 C.ar    1  UNL1        0.0016
     20 C         139.4377  145.1672  163.8031 C.ar    1  UNL1        0.0016
     21 C         139.5218  144.3568  162.5437 C.ar    1  UNL1        0.0192
     22 C         138.7150  143.0996  162.4055 C.ar    1  UNL1        0.0869
     23 N         138.5935  142.1024  161.2916 N.ar    1  UNL1       -0.2480
     24 C         137.5992  138.4670  161.3620 C.3     1  UNL1        0.1108
     25 N         137.2104  139.8458  160.9176 N.pl3   1  UNL1       -0.3023
     26 H         136.6813  139.9674  160.0963 H       1  UNL1        0.1497
     27 C         139.7789  144.6422  156.9162 C.3     1  UNL1        0.1486
     28 C         140.9073  145.2930  157.6598 C.3     1  UNL1        0.0298
     29 C         138.6504  143.9913  156.1726 C.3     1  UNL1        0.0298
     30 S         139.6534  145.8561  156.0441 S.O2    1  UNL1       -0.0064
     31 C         139.5279  147.0701  155.1720 C.3     1  UNL1        0.1764
     32 O         139.5659  144.9766  154.8323 O.2     1  UNL1       -0.1727
     33 O         139.7409  146.7357  157.2560 O.2     1  UNL1       -0.1727
@<TRIPOS>BOND
     1    24    25    1
     2    25    15    1
     3    15    16   ar
     4    16    17   ar
     5    17    18   ar
     6    18    19   ar
     7    19    20   ar
     8    20    21   ar
     9    21    22   ar
    10    22    23   ar
    11    23     1    1
    12     1     2   ar
    13     2     3   ar
    14     3     4   ar
    15     4     5   ar
    16     5    27    1
    17    27    28    1
    18    27    29    1
    19    27    30    1
    20    30    31    1
    21    30    32    2
    22    30    33    2
    23     5     6   ar
    24     4     7    1
    25     7     8    1
    26     9     8    1
    27     9    10    1
    28    10    11    1
    29    11    12    1
    30    12    13    1
    31    13    14    1
    32    23    15   ar
    33     6     1   ar
    34    14     9    1
    35    22    17   ar
    36    14     3    1
    37    25    26    1
@<TRIPOS>MOLECULE
*****
 33 37 0 0 0
SMALL
GASTEIGER

@<TRIPOS>ATOM
      1 C         140.7572  140.8190  164.7313 C.ar    1  UNL1        0.2400
      2 N         140.3993  142.1473  164.1336 N.ar    1  UNL1       -0.1929
      3 C         140.6324  142.4001  162.6735 C.ar    1  UNL1        0.1705
      4 C         141.2234  141.3245  161.8112 C.ar    1  UNL1        0.1851
      5 C         141.5813  139.9960  162.4089 C.ar    1  UNL1        0.1183
      6 N         141.3482  139.7433  163.8689 N.ar    1  UNL1       -0.2106
      7 O         141.4565  141.5772  160.3511 O.3     1  UNL1       -0.4695
      8 C         141.0986  142.9056  159.7534 C.3     1  UNL1        0.2277
      9 C         140.5076  143.9813  160.6158 C.3     1  UNL1        0.1477
     10 C         140.1497  145.3097  160.0181 C.3     1  UNL1        0.1657
     11 O         139.5587  146.3853  160.8804 O.3     1  UNL1       -0.3501
     12 C         139.3255  146.1325  162.3405 C.3     1  UNL1        0.1636
     13 C         139.6834  144.8042  162.9382 C.3     1  UNL1        0.1244
     14 N         140.2744  143.7286  162.0758 N.pl3   1  UNL1       -0.2839
     15 C         139.4135  139.7462  166.7779 C.ar    1  UNL1        0.2041
     16 N         139.5636  139.7623  168.2703 N.ar    1  UNL1       -0.2134
     17 C         140.7670  140.5923  168.6061 C.ar    1  UNL1        0.1003
     18 C         141.3990  140.9599  169.9159 C.ar    1  UNL1        0.0207
     19 C         142.6246  141.8244  169.9407 C.ar    1  UNL1        0.0016
     20 C         143.2183  142.3213  168.6559 C.ar    1  UNL1        0.0016
     21 C         142.5862  141.9537  167.3462 C.ar    1  UNL1        0.0192
     22 C         141.3606  141.0892  167.3213 C.ar    1  UNL1        0.0869
     23 N         140.5240  140.5662  166.1914 N.ar    1  UNL1       -0.2480
     24 C         138.6358  137.7180  165.3524 C.3     1  UNL1        0.1108
     25 N         138.3410  139.0348  166.0074 N.pl3   1  UNL1       -0.3023
     26 H         137.4434  139.4322  165.9315 H       1  UNL1        0.1497
     27 C         142.1723  138.9204  161.5465 C.3     1  UNL1        0.1486
     28 C         143.5481  139.4411  161.8399 C.3     1  UNL1        0.0298
     29 C         140.7966  138.3997  161.2531 C.3     1  UNL1        0.0298
     30 S         142.7633  137.8448  160.6842 S.O2    1  UNL1       -0.0064
     31 C         143.3543  136.7691  159.8217 C.3     1  UNL1        0.1764
     32 O         141.6686  138.0490  159.6792 O.2     1  UNL1       -0.1727
     33 O         143.8580  137.6406  161.6891 O.2     1  UNL1       -0.1727
@<TRIPOS>BOND
     1    24    25    1
     2    25    15    1
     3    15    16   ar
     4    16    17   ar
     5    17    18   ar
     6    18    19   ar
     7    19    20   ar
     8    20    21   ar
     9    21    22   ar
    10    22    23   ar
    11    23     1    1
    12     1     2   ar
    13     2     3   ar
    14     3     4   ar
    15     4     5   ar
    16     5    27    1
    17    27    28    1
    18    27    29    1
    19    27    30    1
    20    30    31    1
    21    30    32    2
    22    30    33    2
    23     5     6   ar
    24     4     7    1
    25     7     8    1
    26     9     8    1
    27     9    10    1
    28    10    11    1
    29    11    12    1
    30    12    13    1
    31    13    14    1
    32    23    15   ar
    33     6     1   ar
    34    14     9    1
    35    22    17   ar
    36    14     3    1
    37    25    26    1
@<TRIPOS>MOLECULE
*****
 33 37 0 0 0
SMALL
GASTEIGER

@<TRIPOS>ATOM
      1 C         141.0457  143.5281  160.4631 C.ar    1  UNL1        0.2400
      2 N         140.6847  144.4433  159.3309 N.ar    1  UNL1       -0.1929
      3 C         140.7305  143.9424  157.9177 C.ar    1  UNL1        0.1705
      4 C         141.1372  142.5262  157.6368 C.ar    1  UNL1        0.1851
      5 C         141.4982  141.6109  158.7691 C.ar    1  UNL1        0.1183
      6 N         141.4525  142.1118  160.1822 N.ar    1  UNL1       -0.2106
      7 O         141.1830  142.0252  156.2237 O.3     1  UNL1       -0.4695
      8 C         140.8220  142.9405  155.0915 C.3     1  UNL1        0.2277
      9 C         140.4153  144.3567  155.3723 C.3     1  UNL1        0.1477
     10 C         140.0543  145.2720  154.2401 C.3     1  UNL1        0.1657
     11 O         139.6475  146.6882  154.5210 O.3     1  UNL1       -0.3501
     12 C         139.6018  147.1891  155.9342 C.3     1  UNL1        0.1636
     13 C         139.9628  146.2739  157.0664 C.3     1  UNL1        0.1244
     14 N         140.3695  144.8577  156.7855 N.pl3   1  UNL1       -0.2839
     15 C         142.1542  144.5957  162.6486 C.ar    1  UNL1        0.2041
     16 N         141.6596  144.9681  164.0149 N.ar    1  UNL1       -0.2134
     17 C         140.1996  144.6316  164.0869 C.ar    1  UNL1        0.1003
     18 C         139.1886  144.7787  165.1852 C.ar    1  UNL1        0.0207
     19 C         137.7701  144.3454  164.9618 C.ar    1  UNL1        0.0016
     20 C         137.3624  143.7650  163.6401 C.ar    1  UNL1        0.0016
     21 C         138.3733  143.6179  162.5417 C.ar    1  UNL1        0.0192
     22 C         139.7919  144.0512  162.7651 C.ar    1  UNL1        0.0869
     23 N         141.0000  144.0290  161.8762 N.ar    1  UNL1       -0.2480
     24 C         144.5082  143.6018  162.1786 C.3     1  UNL1        0.1108
     25 N         143.5569  144.7609  162.1435 N.pl3   1  UNL1       -0.3023
     26 H         143.8532  145.6302  161.7889 H       1  UNL1        0.1497
     27 C         141.9050  140.1947  158.4882 C.3     1  UNL1        0.1486
     28 C         140.4721  139.7630  158.5898 C.3     1  UNL1        0.0298
     29 C         143.3379  140.6264  158.3865 C.3     1  UNL1        0.0298
     30 S         142.3117  138.7785  158.2073 S.O2    1  UNL1       -0.0064
     31 C         142.7184  137.3622  157.9263 C.3     1  UNL1        0.1764
     32 O         140.8959  138.3301  158.4180 O.2     1  UNL1       -0.1727
     33 O         143.7275  139.2269  157.9965 O.2     1  UNL1       -0.1727
@<TRIPOS>BOND
     1    24    25    1
     2    25    15    1
     3    15    16   ar
     4    16    17   ar
     5    17    18   ar
     6    18    19   ar
     7    19    20   ar
     8    20    21   ar
     9    21    22   ar
    10    22    23   ar
    11    23     1    1
    12     1     2   ar
    13     2     3   ar
    14     3     4   ar
    15     4     5   ar
    16     5    27    1
    17    27    28    1
    18    27    29    1
    19    27    30    1
    20    30    31    1
    21    30    32    2
    22    30    33    2
    23     5     6   ar
    24     4     7    1
    25     7     8    1
    26     9     8    1
    27     9    10    1
    28    10    11    1
    29    11    12    1
    30    12    13    1
    31    13    14    1
    32    23    15   ar
    33     6     1   ar
    34    14     9    1
    35    22    17   ar
    36    14     3    1
    37    25    26    1
@<TRIPOS>MOLECULE
*****
 33 37 0 0 0
SMALL
GASTEIGER

@<TRIPOS>ATOM
      1 C         140.5829  142.2765  159.5402 C.ar    1  UNL1        0.2400
      2 N         140.0381  142.0001  160.9101 N.ar    1  UNL1       -0.1929
      3 C         139.9055  140.5863  161.3933 C.ar    1  UNL1        0.1705
      4 C         140.3176  139.4488  160.5066 C.ar    1  UNL1        0.1851
      5 C         140.8624  139.7252  159.1366 C.ar    1  UNL1        0.1183
      6 N         140.9951  141.1390  158.6534 N.ar    1  UNL1       -0.2106
      7 O         140.1849  138.0350  160.9898 O.3     1  UNL1       -0.4695
      8 C         139.6401  137.7586  162.3598 C.3     1  UNL1        0.2277
      9 C         139.2280  138.8961  163.2466 C.3     1  UNL1        0.1477
     10 C         138.6832  138.6197  164.6165 C.3     1  UNL1        0.1657
     11 O         138.2711  139.7572  165.5032 O.3     1  UNL1       -0.3501
     12 C         138.4037  141.1710  165.0200 C.3     1  UNL1        0.1636
     13 C         138.9485  141.4474  163.6501 C.3     1  UNL1        0.1244
     14 N         139.3607  140.3099  162.7634 N.pl3   1  UNL1       -0.2839
     15 C         141.5283  144.7712  159.7058 C.ar    1  UNL1        0.2041
     16 N         141.3738  146.0204  158.8899 N.ar    1  UNL1       -0.2134
     17 C         140.4656  145.7115  157.7368 C.ar    1  UNL1        0.1003
     18 C         139.9565  146.5555  156.6061 C.ar    1  UNL1        0.0207
     19 C         139.0406  145.9593  155.5786 C.ar    1  UNL1        0.0016
     20 C         138.6337  144.5192  155.6818 C.ar    1  UNL1        0.0016
     21 C         139.1429  143.6753  156.8125 C.ar    1  UNL1        0.0192
     22 C         140.0588  144.2714  157.8400 C.ar    1  UNL1        0.0869
     23 N         140.7156  143.6903  159.0570 N.ar    1  UNL1       -0.2480
     24 C         141.7155  144.8218  162.2966 C.3     1  UNL1        0.1108
     25 N         142.3510  144.6282  160.9519 N.pl3   1  UNL1       -0.3023
     26 H         143.3082  144.4072  160.8870 H       1  UNL1        0.1497
     27 C         141.2745  138.5877  158.2499 C.3     1  UNL1        0.1486
     28 C         139.8782  138.5040  157.7083 C.3     1  UNL1        0.0298
     29 C         142.6708  138.6714  158.7914 C.3     1  UNL1        0.0298
     30 S         141.6867  137.4503  157.3632 S.O2    1  UNL1       -0.0064
     31 C         142.0988  136.3127  156.4764 C.3     1  UNL1        0.1764
     32 O         140.2602  137.2648  156.9381 O.2     1  UNL1       -0.1727
     33 O         143.1131  137.6358  157.7882 O.2     1  UNL1       -0.1727
@<TRIPOS>BOND
     1    24    25    1
     2    25    15    1
     3    15    16   ar
     4    16    17   ar
     5    17    18   ar
     6    18    19   ar
     7    19    20   ar
     8    20    21   ar
     9    21    22   ar
    10    22    23   ar
    11    23     1    1
    12     1     2   ar
    13     2     3   ar
    14     3     4   ar
    15     4     5   ar
    16     5    27    1
    17    27    28    1
    18    27    29    1
    19    27    30    1
    20    30    31    1
    21    30    32    2
    22    30    33    2
    23     5     6   ar
    24     4     7    1
    25     7     8    1
    26     9     8    1
    27     9    10    1
    28    10    11    1
    29    11    12    1
    30    12    13    1
    31    13    14    1
    32    23    15   ar
    33     6     1   ar
    34    14     9    1
    35    22    17   ar
    36    14     3    1
    37    25    26    1
@<TRIPOS>MOLECULE
*****
 33 37 0 0 0
SMALL
GASTEIGER

@<TRIPOS>ATOM
      1 C         140.8080  141.0275  164.8094 C.ar    1  UNL1        0.2400
      2 N         141.4184  140.0554  163.8439 N.ar    1  UNL1       -0.1929
      3 C         141.5931  140.4380  162.4040 C.ar    1  UNL1        0.1705
      4 C         141.1574  141.7926  161.9297 C.ar    1  UNL1        0.1851
      5 C         140.5468  142.7648  162.8953 C.ar    1  UNL1        0.1183
      6 N         140.3721  142.3822  164.3351 N.ar    1  UNL1       -0.2106
      7 O         141.3321  142.1752  160.4899 O.3     1  UNL1       -0.4695
      8 C         141.9425  141.2031  159.5243 C.3     1  UNL1        0.2277
      9 C         142.3784  139.8484  159.9986 C.3     1  UNL1        0.1477
     10 C         142.9889  138.8763  159.0331 C.3     1  UNL1        0.1657
     11 O         143.4246  137.5217  159.5074 O.3     1  UNL1       -0.3501
     12 C         143.2499  137.1391  160.9472 C.3     1  UNL1        0.1636
     13 C         142.6395  138.1112  161.9127 C.3     1  UNL1        0.1244
     14 N         142.2037  139.4658  161.4385 N.pl3   1  UNL1       -0.2839
     15 C         139.5707  139.7398  166.7983 C.ar    1  UNL1        0.2041
     16 N         139.7711  139.6358  168.2812 N.ar    1  UNL1       -0.2134
     17 C         140.9577  140.4767  168.6486 C.ar    1  UNL1        0.1003
     18 C         141.6218  140.7551  169.9645 C.ar    1  UNL1        0.0207
     19 C         142.8187  141.6572  170.0245 C.ar    1  UNL1        0.0016
     20 C         143.3516  142.2809  168.7686 C.ar    1  UNL1        0.0016
     21 C         142.6875  142.0025  167.4528 C.ar    1  UNL1        0.0192
     22 C         141.4905  141.1004  167.3928 C.ar    1  UNL1        0.0869
     23 N         140.6332  140.6450  166.2492 N.ar    1  UNL1       -0.2480
     24 C         138.8208  137.8365  165.1968 C.3     1  UNL1        0.1108
     25 N         138.4962  139.0582  166.0040 N.pl3   1  UNL1       -0.3023
     26 H         137.5778  139.4128  166.0125 H       1  UNL1        0.1497
     27 C         140.1110  144.1194  162.4210 C.3     1  UNL1        0.1486
     28 C         138.7380  143.5816  162.1465 C.3     1  UNL1        0.0298
     29 C         141.4841  144.6573  162.6955 C.3     1  UNL1        0.0298
     30 S         139.6753  145.4741  161.9467 S.O2    1  UNL1       -0.0064
     31 C         139.2395  146.8288  161.4724 C.3     1  UNL1        0.1764
     32 O         141.0862  145.7877  161.5459 O.2     1  UNL1       -0.1727
     33 O         138.2643  145.1605  162.3476 O.2     1  UNL1       -0.1727
@<TRIPOS>BOND
     1    24    25    1
     2    25    15    1
     3    15    16   ar
     4    16    17   ar
     5    17    18   ar
     6    18    19   ar
     7    19    20   ar
     8    20    21   ar
     9    21    22   ar
    10    22    23   ar
    11    23     1    1
    12     1     2   ar
    13     2     3   ar
    14     3     4   ar
    15     4     5   ar
    16     5    27    1
    17    27    28    1
    18    27    29    1
    19    27    30    1
    20    30    31    1
    21    30    32    2
    22    30    33    2
    23     5     6   ar
    24     4     7    1
    25     7     8    1
    26     9     8    1
    27     9    10    1
    28    10    11    1
    29    11    12    1
    30    12    13    1
    31    13    14    1
    32    23    15   ar
    33     6     1   ar
    34    14     9    1
    35    22    17   ar
    36    14     3    1
    37    25    26    1
@<TRIPOS>MOLECULE
*****
 33 37 0 0 0
SMALL
GASTEIGER

@<TRIPOS>ATOM
      1 C         139.5474  141.7090  160.0203 C.ar    1  UNL1        0.2400
      2 N         139.7074  142.8992  159.1216 N.ar    1  UNL1       -0.1929
      3 C         140.4987  142.7801  157.8529 C.ar    1  UNL1        0.1705
      4 C         141.1301  141.4707  157.4829 C.ar    1  UNL1        0.1851
      5 C         140.9701  140.2804  158.3816 C.ar    1  UNL1        0.1183
      6 N         140.1788  140.3995  159.6503 N.ar    1  UNL1       -0.2106
      7 O         141.9214  141.3516  156.2142 O.3     1  UNL1       -0.4695
      8 C         142.0814  142.5418  155.3155 C.3     1  UNL1        0.2277
      9 C         141.4500  143.8513  155.6855 C.3     1  UNL1        0.1477
     10 C         141.6100  145.0415  154.7868 C.3     1  UNL1        0.1657
     11 O         140.9786  146.3509  155.1568 O.3     1  UNL1       -0.3501
     12 C         140.1873  146.4700  156.4255 C.3     1  UNL1        0.1636
     13 C         140.0273  145.2798  157.3242 C.3     1  UNL1        0.1244
     14 N         140.6587  143.9704  156.9542 N.pl3   1  UNL1       -0.2839
     15 C         137.6832  140.8869  161.7506 C.ar    1  UNL1        0.2041
     16 N         137.1627  141.3865  163.0658 N.ar    1  UNL1       -0.2134
     17 C         137.9140  142.6364  163.4170 C.ar    1  UNL1        0.1003
     18 C         137.8286  143.5612  164.5949 C.ar    1  UNL1        0.0207
     19 C         138.7280  144.7590  164.6746 C.ar    1  UNL1        0.0016
     20 C         139.7128  145.0320  163.5765 C.ar    1  UNL1        0.0016
     21 C         139.7982  144.1072  162.3987 C.ar    1  UNL1        0.0192
     22 C         138.8987  142.9093  162.3189 C.ar    1  UNL1        0.0869
     23 N         138.7561  141.8281  161.2890 N.ar    1  UNL1       -0.2480
     24 C         137.6127  138.3007  161.5131 C.3     1  UNL1        0.1108
     25 N         137.2132  139.6614  161.0246 N.pl3   1  UNL1       -0.3023
     26 H         136.6425  139.7502  160.2273 H       1  UNL1        0.1497
     27 C         141.6015  138.9711  158.0116 C.3     1  UNL1        0.1486
     28 C         140.3120  138.5255  157.3882 C.3     1  UNL1        0.0298
     29 C         142.8909  139.4166  158.6351 C.3     1  UNL1        0.0298
     30 S         142.2328  137.6617  157.6416 S.O2    1  UNL1       -0.0064
     31 C         142.8642  136.3523  157.2716 C.3     1  UNL1        0.1764
     32 O         141.3624  137.5866  156.4223 O.2     1  UNL1       -0.1727
     33 O         143.1032  137.7368  158.8609 O.2     1  UNL1       -0.1727
@<TRIPOS>BOND
     1    24    25    1
     2    25    15    1
     3    15    16   ar
     4    16    17   ar
     5    17    18   ar
     6    18    19   ar
     7    19    20   ar
     8    20    21   ar
     9    21    22   ar
    10    22    23   ar
    11    23     1    1
    12     1     2   ar
    13     2     3   ar
    14     3     4   ar
    15     4     5   ar
    16     5    27    1
    17    27    28    1
    18    27    29    1
    19    27    30    1
    20    30    31    1
    21    30    32    2
    22    30    33    2
    23     5     6   ar
    24     4     7    1
    25     7     8    1
    26     9     8    1
    27     9    10    1
    28    10    11    1
    29    11    12    1
    30    12    13    1
    31    13    14    1
    32    23    15   ar
    33     6     1   ar
    34    14     9    1
    35    22    17   ar
    36    14     3    1
    37    25    26    1
@<TRIPOS>MOLECULE
*****
 33 37 0 0 0
SMALL
GASTEIGER

@<TRIPOS>ATOM
      1 C         139.5456  143.1129  158.7170 C.ar    1  UNL1        0.2400
      2 N         140.3077  141.8222  158.6586 N.ar    1  UNL1       -0.1929
      3 C         140.7248  141.1394  159.9274 C.ar    1  UNL1        0.1705
      4 C         140.3798  141.7472  161.2546 C.ar    1  UNL1        0.1851
      5 C         139.6177  143.0379  161.3131 C.ar    1  UNL1        0.1183
      6 N         139.2006  143.7208  160.0443 N.ar    1  UNL1       -0.2106
      7 O         140.7969  141.0644  162.5234 O.3     1  UNL1       -0.4695
      8 C         141.5589  139.7738  162.4650 C.3     1  UNL1        0.2277
      9 C         141.9040  139.1659  161.1377 C.3     1  UNL1        0.1477
     10 C         142.6660  137.8752  161.0793 C.3     1  UNL1        0.1657
     11 O         143.0110  137.2674  159.7521 O.3     1  UNL1       -0.3501
     12 C         142.5939  137.9502  158.4833 C.3     1  UNL1        0.1636
     13 C         141.8319  139.2409  158.5417 C.3     1  UNL1        0.1244
     14 N         141.4869  139.8487  159.8689 N.pl3   1  UNL1       -0.2839
     15 C         139.6637  145.0979  156.9308 C.ar    1  UNL1        0.2041
     16 N         138.9690  145.4032  155.6369 N.ar    1  UNL1       -0.2134
     17 C         138.0044  144.2897  155.3547 C.ar    1  UNL1        0.1003
     18 C         137.0491  144.0520  154.2230 C.ar    1  UNL1        0.0207
     19 C         136.1923  142.8208  154.2107 C.ar    1  UNL1        0.0016
     20 C         136.2909  141.8272  155.3302 C.ar    1  UNL1        0.0016
     21 C         137.2463  142.0649  156.4619 C.ar    1  UNL1        0.0192
     22 C         138.1031  143.2962  156.4742 C.ar    1  UNL1        0.0869
     23 N         139.1285  143.7957  157.4483 N.ar    1  UNL1       -0.2480
     24 C         142.1632  145.6244  157.4055 C.3     1  UNL1        0.1108
     25 N         140.7099  145.9460  157.5912 N.pl3   1  UNL1       -0.3023
     26 H         140.4427  146.7137  158.1466 H       1  UNL1        0.1497
     27 C         139.2727  143.6458  162.6403 C.3     1  UNL1        0.1486
     28 C         140.5702  144.3983  162.6329 C.3     1  UNL1        0.0298
     29 C         137.9752  142.8932  162.6476 C.3     1  UNL1        0.0298
     30 S         138.9277  144.2536  163.9674 S.O2    1  UNL1       -0.0064
     31 C         138.5828  144.8614  165.2947 C.3     1  UNL1        0.1764
     32 O         140.3406  144.0496  164.4281 O.2     1  UNL1       -0.1727
     33 O         137.5149  144.4575  163.5068 O.2     1  UNL1       -0.1727
@<TRIPOS>BOND
     1    24    25    1
     2    25    15    1
     3    15    16   ar
     4    16    17   ar
     5    17    18   ar
     6    18    19   ar
     7    19    20   ar
     8    20    21   ar
     9    21    22   ar
    10    22    23   ar
    11    23     1    1
    12     1     2   ar
    13     2     3   ar
    14     3     4   ar
    15     4     5   ar
    16     5    27    1
    17    27    28    1
    18    27    29    1
    19    27    30    1
    20    30    31    1
    21    30    32    2
    22    30    33    2
    23     5     6   ar
    24     4     7    1
    25     7     8    1
    26     9     8    1
    27     9    10    1
    28    10    11    1
    29    11    12    1
    30    12    13    1
    31    13    14    1
    32    23    15   ar
    33     6     1   ar
    34    14     9    1
    35    22    17   ar
    36    14     3    1
    37    25    26    1
@<TRIPOS>MOLECULE
*****
 33 37 0 0 0
SMALL
GASTEIGER

@<TRIPOS>ATOM
      1 C         143.1168  140.7342  159.7306 C.ar    1  UNL1        0.2400
      2 N         142.3343  142.0128  159.7834 N.ar    1  UNL1       -0.1929
      3 C         141.8612  142.5486  161.1022 C.ar    1  UNL1        0.1705
      4 C         142.1705  141.8059  162.3680 C.ar    1  UNL1        0.1851
      5 C         142.9531  140.5272  162.3153 C.ar    1  UNL1        0.1183
      6 N         143.4262  139.9914  160.9965 N.ar    1  UNL1       -0.2106
      7 O         141.6974  142.3417  163.6868 O.3     1  UNL1       -0.4695
      8 C         140.9150  143.6203  163.7396 C.3     1  UNL1        0.2277
      9 C         140.6055  144.3632  162.4737 C.3     1  UNL1        0.1477
     10 C         139.8231  145.6418  162.5265 C.3     1  UNL1        0.1657
     11 O         139.5137  146.3845  161.2606 O.3     1  UNL1       -0.3501
     12 C         139.9868  145.8487  159.9419 C.3     1  UNL1        0.1636
     13 C         140.7693  144.5701  159.8891 C.3     1  UNL1        0.1244
     14 N         141.0787  143.8273  161.1549 N.pl3   1  UNL1       -0.2839
     15 C         143.1021  138.9481  157.7420 C.ar    1  UNL1        0.2041
     16 N         143.8446  138.7957  156.4476 N.ar    1  UNL1       -0.2134
     17 C         144.7914  139.9519  156.3175 C.ar    1  UNL1        0.1003
     18 C         145.7765  140.3273  155.2504 C.ar    1  UNL1        0.0207
     19 C         146.6042  141.5696  155.3974 C.ar    1  UNL1        0.0016
     20 C         146.4468  142.4365  156.6114 C.ar    1  UNL1        0.0016
     21 C         145.4617  142.0611  157.6784 C.ar    1  UNL1        0.0192
     22 C         144.6339  140.8188  157.5315 C.ar    1  UNL1        0.0869
     23 N         143.5899  140.1984  158.4119 N.ar    1  UNL1       -0.2480
     24 C         140.6074  138.4017  158.2198 C.3     1  UNL1        0.1108
     25 N         142.0554  138.0141  158.2732 N.pl3   1  UNL1       -0.3023
     26 H         142.3189  137.1466  158.6569 H       1  UNL1        0.1497
     27 C         143.2624  139.7844  163.5811 C.3     1  UNL1        0.1486
     28 C         141.9832  139.0137  163.4416 C.3     1  UNL1        0.0298
     29 C         144.5417  140.5551  163.7207 C.3     1  UNL1        0.0298
     30 S         143.5718  139.0416  164.8470 S.O2    1  UNL1       -0.0064
     31 C         143.8812  138.2988  166.1130 C.3     1  UNL1        0.1764
     32 O         145.0391  139.2294  164.5986 O.2     1  UNL1       -0.1727
     33 O         142.1045  138.8539  165.0954 O.2     1  UNL1       -0.1727
@<TRIPOS>BOND
     1    24    25    1
     2    25    15    1
     3    15    16   ar
     4    16    17   ar
     5    17    18   ar
     6    18    19   ar
     7    19    20   ar
     8    20    21   ar
     9    21    22   ar
    10    22    23   ar
    11    23     1    1
    12     1     2   ar
    13     2     3   ar
    14     3     4   ar
    15     4     5   ar
    16     5    27    1
    17    27    28    1
    18    27    29    1
    19    27    30    1
    20    30    31    1
    21    30    32    2
    22    30    33    2
    23     5     6   ar
    24     4     7    1
    25     7     8    1
    26     9     8    1
    27     9    10    1
    28    10    11    1
    29    11    12    1
    30    12    13    1
    31    13    14    1
    32    23    15   ar
    33     6     1   ar
    34    14     9    1
    35    22    17   ar
    36    14     3    1
    37    25    26    1
