@<TRIPOS>MOLECULE
*****
 32 35 0 0 0
SMALL
GASTEIGER

@<TRIPOS>ATOM
      1 C         141.9718  138.0174  158.7560 C.ar    1  UNL1        0.0764
      2 C         142.6096  137.6541  160.0641 C.ar    1  UNL1        0.0176
      3 C         141.8797  137.9066  161.3500 C.ar    1  UNL1        0.0174
      4 C         140.5121  138.5224  161.3278 C.ar    1  UNL1        0.0676
      5 C         139.8743  138.8856  160.0197 C.ar    1  UNL1        0.0723
      6 N         140.6042  138.6332  158.7338 N.ar    1  UNL1       -0.2511
      7 C         138.5067  139.5014  159.9974 C.3     1  UNL1        0.0489
      8 C         137.7769  139.7539  161.2833 C.3     1  UNL1        0.0282
      9 C         138.4147  139.3906  162.5916 C.3     1  UNL1        0.0989
     10 N         139.7823  138.7748  162.6138 N.am    1  UNL1       -0.2540
     11 C         140.4201  138.4115  163.9219 C.2     1  UNL1        0.2528
     12 O         141.7877  137.7958  163.9441 O.2     1  UNL1       -0.2696
     13 C         139.6902  138.6640  165.2079 C.ar    1  UNL1        0.0547
     14 C         138.4549  137.8789  165.5358 C.ar    1  UNL1        0.0046
     15 C         137.7252  138.1314  166.8217 C.ar    1  UNL1        0.0010
     16 C         138.2307  139.1690  167.7797 C.ar    1  UNL1        0.0114
     17 C         139.4660  139.9541  167.4518 C.ar    1  UNL1        0.0578
     18 CL        139.9715  140.9918  168.4098 Cl      1  UNL1       -0.0822
     19 C         140.1957  139.7017  166.1659 C.ar    1  UNL1        0.0159
     20 C         142.8002  138.8492  156.4383 C.3     1  UNL1        0.0278
     21 C         142.7016  137.7649  157.4700 C.3     1  UNL1        0.1121
     22 N         143.3329  136.4282  157.2159 N.am    1  UNL1       -0.2973
     23 C         142.5807  135.3757  156.4567 C.2     1  UNL1        0.2461
     24 O         141.1971  135.6600  155.9515 O.2     1  UNL1       -0.2701
     25 H         144.2409  136.2416  157.5475 H       1  UNL1        0.1500
     26 C         143.2119  134.0389  156.2026 C.ar    1  UNL1        0.0535
     27 C         142.8521  133.2615  154.9712 C.ar    1  UNL1        0.0068
     28 C         143.4833  131.9248  154.7170 C.ar    1  UNL1        0.0298
     29 C         144.4744  131.3654  155.6943 C.ar    1  UNL1        0.1401
     30 F         145.1056  130.0286  155.4402 F       1  UNL1       -0.2042
     31 C         144.8342  132.1428  156.9256 C.ar    1  UNL1        0.0298
     32 C         144.2029  133.4796  157.1797 C.ar    1  UNL1        0.0068
@<TRIPOS>BOND
     1    21    20    1
     2    21    22    1
     3    22    23   am
     4    23    24    2
     5    23    26    1
     6    26    27   ar
     7    27    28   ar
     8    28    29   ar
     9    29    30    1
    10    29    31   ar
    11    31    32   ar
    12    21     1    1
    13     1     2   ar
    14     2     3   ar
    15     3     4   ar
    16     4     5   ar
    17     5     6   ar
    18     5     7    1
    19     7     8    1
    20     8     9    1
    21     9    10    1
    22    10    11   am
    23    11    12    2
    24    11    13    1
    25    13    14   ar
    26    14    15   ar
    27    15    16   ar
    28    16    17   ar
    29    17    18    1
    30    17    19   ar
    31    32    26   ar
    32     6     1   ar
    33    19    13   ar
    34    10     4    1
    35    22    25    1
@<TRIPOS>MOLECULE
*****
 32 35 0 0 0
SMALL
GASTEIGER

@<TRIPOS>ATOM
      1 C         138.6007  139.8205  164.7831 C.ar    1  UNL1        0.0764
      2 C         138.2884  141.2161  164.3307 C.ar    1  UNL1        0.0176
      3 C         138.3587  141.5655  162.8737 C.ar    1  UNL1        0.0174
      4 C         138.7413  140.5193  161.8691 C.ar    1  UNL1        0.0676
      5 C         139.0536  139.1237  162.3216 C.ar    1  UNL1        0.0723
      6 N         138.9833  138.7743  163.7786 N.ar    1  UNL1       -0.2511
      7 C         139.4363  138.0776  161.3170 C.3     1  UNL1        0.0489
      8 C         139.5066  138.4270  159.8600 C.3     1  UNL1        0.0282
      9 C         139.1942  139.8227  159.4075 C.3     1  UNL1        0.0989
     10 N         138.8116  140.8688  160.4121 N.am    1  UNL1       -0.2540
     11 C         138.4993  142.2644  159.9596 C.2     1  UNL1        0.2528
     12 O         138.1166  143.3106  160.9642 O.2     1  UNL1       -0.2696
     13 C         138.5696  142.6139  158.5025 C.ar    1  UNL1        0.0547
     14 C         139.8173  143.2250  157.9372 C.ar    1  UNL1        0.0046
     15 C         139.8875  143.5744  156.4802 C.ar    1  UNL1        0.0010
     16 C         138.7100  143.3128  155.5885 C.ar    1  UNL1        0.0114
     17 C         137.4623  142.7017  156.1539 C.ar    1  UNL1        0.0578
     18 CL        136.2848  142.4400  155.2622 Cl      1  UNL1       -0.0822
     19 C         137.3921  142.3522  157.6109 C.ar    1  UNL1        0.0159
     20 C         137.7727  138.2550  166.6841 C.3     1  UNL1        0.0278
     21 C         138.5304  139.4710  166.2402 C.3     1  UNL1        0.1121
     22 N         139.2178  140.3376  167.2533 N.am    1  UNL1       -0.2973
     23 C         140.7146  140.4351  167.2648 C.2     1  UNL1        0.2461
     24 O         141.5240  139.6660  166.2630 O.2     1  UNL1       -0.2701
     25 H         138.6866  140.8424  167.9108 H       1  UNL1        0.1500
     26 C         141.4020  141.3018  168.2779 C.ar    1  UNL1        0.0535
     27 C         140.6936  142.4943  168.8489 C.ar    1  UNL1        0.0068
     28 C         141.3810  143.3609  169.8620 C.ar    1  UNL1        0.0298
     29 C         142.7769  143.0350  170.3041 C.ar    1  UNL1        0.1401
     30 F         143.4643  143.9016  171.3172 F       1  UNL1       -0.2042
     31 C         143.4853  141.8425  169.7331 C.ar    1  UNL1        0.0298
     32 C         142.7978  140.9759  168.7200 C.ar    1  UNL1        0.0068
@<TRIPOS>BOND
     1    21    20    1
     2    21    22    1
     3    22    23   am
     4    23    24    2
     5    23    26    1
     6    26    27   ar
     7    27    28   ar
     8    28    29   ar
     9    29    30    1
    10    29    31   ar
    11    31    32   ar
    12    21     1    1
    13     1     2   ar
    14     2     3   ar
    15     3     4   ar
    16     4     5   ar
    17     5     6   ar
    18     5     7    1
    19     7     8    1
    20     8     9    1
    21     9    10    1
    22    10    11   am
    23    11    12    2
    24    11    13    1
    25    13    14   ar
    26    14    15   ar
    27    15    16   ar
    28    16    17   ar
    29    17    18    1
    30    17    19   ar
    31    32    26   ar
    32     6     1   ar
    33    19    13   ar
    34    10     4    1
    35    22    25    1
@<TRIPOS>MOLECULE
*****
 32 35 0 0 0
SMALL
GASTEIGER

@<TRIPOS>ATOM
      1 C         141.1302  143.9056  160.0311 C.ar    1  UNL1        0.0764
      2 C         142.0634  143.1100  160.8948 C.ar    1  UNL1        0.0176
      3 C         141.6726  142.7645  162.3012 C.ar    1  UNL1        0.0174
      4 C         140.3486  143.2147  162.8438 C.ar    1  UNL1        0.0676
      5 C         139.4155  144.0104  161.9801 C.ar    1  UNL1        0.0723
      6 N         139.8063  144.3559  160.5737 N.ar    1  UNL1       -0.2511
      7 C         138.0915  144.4607  162.5227 C.3     1  UNL1        0.0489
      8 C         137.7007  144.1152  163.9291 C.3     1  UNL1        0.0282
      9 C         138.6339  143.3195  164.7929 C.3     1  UNL1        0.0989
     10 N         139.9578  142.8692  164.2503 N.am    1  UNL1       -0.2540
     11 C         140.8910  142.0736  165.1140 C.2     1  UNL1        0.2528
     12 O         142.2149  141.6233  164.5714 O.2     1  UNL1       -0.2696
     13 C         140.5002  141.7281  166.5204 C.ar    1  UNL1        0.0547
     14 C         139.9090  140.3838  166.8259 C.ar    1  UNL1        0.0046
     15 C         139.5182  140.0384  168.2322 C.ar    1  UNL1        0.0010
     16 C         139.7187  141.0372  169.3332 C.ar    1  UNL1        0.0114
     17 C         140.3100  142.3815  169.0278 C.ar    1  UNL1        0.0578
     18 CL        140.5105  143.3803  170.1287 Cl      1  UNL1       -0.0822
     19 C         140.7007  142.7269  167.6214 C.ar    1  UNL1        0.0159
     20 C         142.2951  143.2674  157.7982 C.3     1  UNL1        0.0278
     21 C         141.5210  144.2511  158.6247 C.3     1  UNL1        0.1121
     22 N         141.1377  145.5803  158.0448 N.am    1  UNL1       -0.2973
     23 C         140.0116  145.6715  157.0581 C.2     1  UNL1        0.2461
     24 O         139.2687  144.4334  156.6513 O.2     1  UNL1       -0.2701
     25 H         141.6252  146.3929  158.3118 H       1  UNL1        0.1500
     26 C         139.6282  147.0007  156.4783 C.ar    1  UNL1        0.0535
     27 C         140.0791  147.3747  155.0973 C.ar    1  UNL1        0.0068
     28 C         139.6958  148.7039  154.5174 C.ar    1  UNL1        0.0298
     29 C         138.8616  149.6592  155.3185 C.ar    1  UNL1        0.1401
     30 F         138.4783  150.9884  154.7386 F       1  UNL1       -0.2042
     31 C         138.4108  149.2852  156.6994 C.ar    1  UNL1        0.0298
     32 C         138.7941  147.9560  157.2793 C.ar    1  UNL1        0.0068
@<TRIPOS>BOND
     1    21    20    1
     2    21    22    1
     3    22    23   am
     4    23    24    2
     5    23    26    1
     6    26    27   ar
     7    27    28   ar
     8    28    29   ar
     9    29    30    1
    10    29    31   ar
    11    31    32   ar
    12    21     1    1
    13     1     2   ar
    14     2     3   ar
    15     3     4   ar
    16     4     5   ar
    17     5     6   ar
    18     5     7    1
    19     7     8    1
    20     8     9    1
    21     9    10    1
    22    10    11   am
    23    11    12    2
    24    11    13    1
    25    13    14   ar
    26    14    15   ar
    27    15    16   ar
    28    16    17   ar
    29    17    18    1
    30    17    19   ar
    31    32    26   ar
    32     6     1   ar
    33    19    13   ar
    34    10     4    1
    35    22    25    1
@<TRIPOS>MOLECULE
*****
 32 35 0 0 0
SMALL
GASTEIGER

@<TRIPOS>ATOM
      1 C         142.1725  143.6576  160.2200 C.ar    1  UNL1        0.0764
      2 C         140.8310  143.3274  160.8042 C.ar    1  UNL1        0.0176
      3 C         140.7119  142.9750  162.2573 C.ar    1  UNL1        0.0174
      4 C         141.9344  142.9529  163.1262 C.ar    1  UNL1        0.0676
      5 C         143.2759  143.2831  162.5421 C.ar    1  UNL1        0.0723
      6 N         143.3949  143.6355  161.0890 N.ar    1  UNL1       -0.2511
      7 C         144.4983  143.2609  163.4110 C.3     1  UNL1        0.0489
      8 C         144.3793  142.9085  164.8642 C.3     1  UNL1        0.0282
      9 C         143.0377  142.5783  165.4484 C.3     1  UNL1        0.0989
     10 N         141.8153  142.6005  164.5794 N.am    1  UNL1       -0.2540
     11 C         140.4738  142.2702  165.1636 C.2     1  UNL1        0.2528
     12 O         139.2513  142.2924  164.2946 O.2     1  UNL1       -0.2696
     13 C         140.3547  141.9178  166.6168 C.ar    1  UNL1        0.0547
     14 C         140.1896  140.4854  167.0301 C.ar    1  UNL1        0.0046
     15 C         140.0706  140.1331  168.4832 C.ar    1  UNL1        0.0010
     16 C         140.1165  141.2131  169.5230 C.ar    1  UNL1        0.0114
     17 C         140.2815  142.6456  169.1098 C.ar    1  UNL1        0.0578
     18 CL        140.3275  143.7257  170.1496 Cl      1  UNL1       -0.0822
     19 C         140.4006  142.9979  167.6566 C.ar    1  UNL1        0.0159
     20 C         141.1120  144.5762  158.0333 C.3     1  UNL1        0.0278
     21 C         142.2916  144.0101  158.7668 C.3     1  UNL1        0.1121
     22 N         143.5902  143.7963  158.0472 N.am    1  UNL1       -0.2973
     23 C         143.9681  142.4242  157.5734 C.2     1  UNL1        0.2461
     24 O         143.0473  141.2658  157.8192 O.2     1  UNL1       -0.2701
     25 H         144.1946  144.5565  157.8859 H       1  UNL1        0.1500
     26 C         145.2668  142.2104  156.8539 C.ar    1  UNL1        0.0535
     27 C         146.5437  142.7377  157.4383 C.ar    1  UNL1        0.0068
     28 C         147.8423  142.5240  156.7188 C.ar    1  UNL1        0.0298
     29 C         147.8641  141.7829  155.4147 C.ar    1  UNL1        0.1401
     30 F         149.1628  141.5691  154.6952 F       1  UNL1       -0.2042
     31 C         146.5872  141.2556  154.8304 C.ar    1  UNL1        0.0298
     32 C         145.2886  141.4694  155.5499 C.ar    1  UNL1        0.0068
@<TRIPOS>BOND
     1    21    20    1
     2    21    22    1
     3    22    23   am
     4    23    24    2
     5    23    26    1
     6    26    27   ar
     7    27    28   ar
     8    28    29   ar
     9    29    30    1
    10    29    31   ar
    11    31    32   ar
    12    21     1    1
    13     1     2   ar
    14     2     3   ar
    15     3     4   ar
    16     4     5   ar
    17     5     6   ar
    18     5     7    1
    19     7     8    1
    20     8     9    1
    21     9    10    1
    22    10    11   am
    23    11    12    2
    24    11    13    1
    25    13    14   ar
    26    14    15   ar
    27    15    16   ar
    28    16    17   ar
    29    17    18    1
    30    17    19   ar
    31    32    26   ar
    32     6     1   ar
    33    19    13   ar
    34    10     4    1
    35    22    25    1
@<TRIPOS>MOLECULE
*****
 32 35 0 0 0
SMALL
GASTEIGER

@<TRIPOS>ATOM
      1 C         142.2989  139.2089  160.3200 C.ar    1  UNL1        0.0764
      2 C         143.1695  139.9908  161.2585 C.ar    1  UNL1        0.0176
      3 C         142.8794  139.9863  162.7301 C.ar    1  UNL1        0.0174
      4 C         141.7187  139.1998  163.2633 C.ar    1  UNL1        0.0676
      5 C         140.8481  138.4179  162.3249 C.ar    1  UNL1        0.0723
      6 N         141.1382  138.4224  160.8532 N.ar    1  UNL1       -0.2511
      7 C         139.6874  137.6315  162.8581 C.3     1  UNL1        0.0489
      8 C         139.3973  137.6269  164.3297 C.3     1  UNL1        0.0282
      9 C         140.2679  138.4089  165.2682 C.3     1  UNL1        0.0989
     10 N         141.4286  139.1953  164.7350 N.am    1  UNL1       -0.2540
     11 C         142.2991  139.9772  165.6735 C.2     1  UNL1        0.2528
     12 O         143.4598  140.7637  165.1402 O.2     1  UNL1       -0.2696
     13 C         142.0090  139.9727  167.1452 C.ar    1  UNL1        0.0547
     14 C         142.7940  139.0817  168.0616 C.ar    1  UNL1        0.0046
     15 C         142.5039  139.0772  169.5332 C.ar    1  UNL1        0.0010
     16 C         141.4288  139.9638  170.0885 C.ar    1  UNL1        0.0114
     17 C         140.6438  140.8548  169.1720 C.ar    1  UNL1        0.0578
     18 CL        139.5688  141.7413  169.7272 Cl      1  UNL1       -0.0822
     19 C         140.9340  140.8593  167.7004 C.ar    1  UNL1        0.0159
     20 C         142.4550  140.4833  158.0614 C.3     1  UNL1        0.0278
     21 C         142.5890  139.2134  158.8483 C.3     1  UNL1        0.1121
     22 N         143.0131  137.9479  158.1636 N.am    1  UNL1       -0.2973
     23 C         142.0312  137.1826  157.3268 C.2     1  UNL1        0.2461
     24 O         140.6252  137.6828  157.1747 O.2     1  UNL1       -0.2701
     25 H         143.9359  137.6197  158.2634 H       1  UNL1        0.1500
     26 C         142.4553  135.9172  156.6421 C.ar    1  UNL1        0.0535
     27 C         141.9855  135.6252  155.2478 C.ar    1  UNL1        0.0068
     28 C         142.4095  134.3597  154.5631 C.ar    1  UNL1        0.0298
     29 C         143.3034  133.3863  155.2728 C.ar    1  UNL1        0.1401
     30 F         143.7275  132.1208  154.5881 F       1  UNL1       -0.2042
     31 C         143.7732  133.6784  156.6670 C.ar    1  UNL1        0.0298
     32 C         143.3491  134.9438  157.3517 C.ar    1  UNL1        0.0068
@<TRIPOS>BOND
     1    21    20    1
     2    21    22    1
     3    22    23   am
     4    23    24    2
     5    23    26    1
     6    26    27   ar
     7    27    28   ar
     8    28    29   ar
     9    29    30    1
    10    29    31   ar
    11    31    32   ar
    12    21     1    1
    13     1     2   ar
    14     2     3   ar
    15     3     4   ar
    16     4     5   ar
    17     5     6   ar
    18     5     7    1
    19     7     8    1
    20     8     9    1
    21     9    10    1
    22    10    11   am
    23    11    12    2
    24    11    13    1
    25    13    14   ar
    26    14    15   ar
    27    15    16   ar
    28    16    17   ar
    29    17    18    1
    30    17    19   ar
    31    32    26   ar
    32     6     1   ar
    33    19    13   ar
    34    10     4    1
    35    22    25    1
@<TRIPOS>MOLECULE
*****
 32 35 0 0 0
SMALL
GASTEIGER

@<TRIPOS>ATOM
      1 C         140.6987  139.1431  159.7735 C.ar    1  UNL1        0.0764
      2 C         141.6646  140.1069  160.3963 C.ar    1  UNL1        0.0176
      3 C         141.7050  140.2703  161.8868 C.ar    1  UNL1        0.0174
      4 C         140.7796  139.4698  162.7545 C.ar    1  UNL1        0.0676
      5 C         139.8137  138.5059  162.1316 C.ar    1  UNL1        0.0723
      6 N         139.7732  138.3426  160.6411 N.ar    1  UNL1       -0.2511
      7 C         138.8882  137.7055  162.9992 C.3     1  UNL1        0.0489
      8 C         138.9286  137.8688  164.4897 C.3     1  UNL1        0.0282
      9 C         139.8946  138.8327  165.1127 C.3     1  UNL1        0.0989
     10 N         140.8200  139.6332  164.2450 N.am    1  UNL1       -0.2540
     11 C         141.7859  140.5970  164.8679 C.2     1  UNL1        0.2528
     12 O         142.7114  141.3975  164.0003 O.2     1  UNL1       -0.2696
     13 C         141.8264  140.7604  166.3585 C.ar    1  UNL1        0.0547
     14 C         142.6004  139.7884  167.1988 C.ar    1  UNL1        0.0046
     15 C         142.6409  139.9518  168.6893 C.ar    1  UNL1        0.0010
     16 C         141.9073  141.0872  169.3395 C.ar    1  UNL1        0.0114
     17 C         141.1333  142.0592  168.4992 C.ar    1  UNL1        0.0578
     18 CL        140.3997  143.1946  169.1494 Cl      1  UNL1       -0.0822
     19 C         141.0928  141.8958  167.0087 C.ar    1  UNL1        0.0159
     20 C         140.4329  140.1737  157.4034 C.3     1  UNL1        0.0278
     21 C         140.6582  138.9797  158.2829 C.3     1  UNL1        0.1121
     22 N         140.8431  137.6223  157.6719 N.am    1  UNL1       -0.2973
     23 C         142.1930  137.2032  157.1701 C.2     1  UNL1        0.2461
     24 O         143.3583  138.1416  157.2792 O.2     1  UNL1       -0.2701
     25 H         140.0783  137.0064  157.6003 H       1  UNL1        0.1500
     26 C         142.3779  135.8458  156.5591 C.ar    1  UNL1        0.0535
     27 C         143.4228  134.9156  157.1006 C.ar    1  UNL1        0.0068
     28 C         143.6076  133.5582  156.4896 C.ar    1  UNL1        0.0298
     29 C         142.7476  133.1310  155.3372 C.ar    1  UNL1        0.1401
     30 F         142.9325  131.7736  154.7262 F       1  UNL1       -0.2042
     31 C         141.7028  134.0612  154.7958 C.ar    1  UNL1        0.0298
     32 C         141.5180  135.4186  155.4068 C.ar    1  UNL1        0.0068
@<TRIPOS>BOND
     1    21    20    1
     2    21    22    1
     3    22    23   am
     4    23    24    2
     5    23    26    1
     6    26    27   ar
     7    27    28   ar
     8    28    29   ar
     9    29    30    1
    10    29    31   ar
    11    31    32   ar
    12    21     1    1
    13     1     2   ar
    14     2     3   ar
    15     3     4   ar
    16     4     5   ar
    17     5     6   ar
    18     5     7    1
    19     7     8    1
    20     8     9    1
    21     9    10    1
    22    10    11   am
    23    11    12    2
    24    11    13    1
    25    13    14   ar
    26    14    15   ar
    27    15    16   ar
    28    16    17   ar
    29    17    18    1
    30    17    19   ar
    31    32    26   ar
    32     6     1   ar
    33    19    13   ar
    34    10     4    1
    35    22    25    1
@<TRIPOS>MOLECULE
*****
 32 35 0 0 0
SMALL
GASTEIGER

@<TRIPOS>ATOM
      1 C         139.7601  139.5710  160.1023 C.ar    1  UNL1        0.0764
      2 C         141.1677  139.4493  160.6061 C.ar    1  UNL1        0.0176
      3 C         141.4782  139.7465  162.0431 C.ar    1  UNL1        0.0174
      4 C         140.3811  140.1655  162.9764 C.ar    1  UNL1        0.0676
      5 C         138.9736  140.2872  162.4726 C.ar    1  UNL1        0.0723
      6 N         138.6631  139.9900  161.0355 N.ar    1  UNL1       -0.2511
      7 C         137.8765  140.7061  163.4058 C.3     1  UNL1        0.0489
      8 C         138.1870  141.0034  164.8429 C.3     1  UNL1        0.0282
      9 C         139.5947  140.8817  165.3468 C.3     1  UNL1        0.0989
     10 N         140.6917  140.4627  164.4135 N.am    1  UNL1       -0.2540
     11 C         142.0993  140.3410  164.9173 C.2     1  UNL1        0.2528
     12 O         143.1964  139.9220  163.9841 O.2     1  UNL1       -0.2696
     13 C         142.4099  140.6382  166.3545 C.ar    1  UNL1        0.0547
     14 C         142.8333  142.0188  166.7603 C.ar    1  UNL1        0.0046
     15 C         143.1439  142.3160  168.1973 C.ar    1  UNL1        0.0010
     16 C         143.0310  141.2326  169.2286 C.ar    1  UNL1        0.0114
     17 C         142.6076  139.8520  168.8228 C.ar    1  UNL1        0.0578
     18 CL        142.4947  138.7686  169.8541 Cl      1  UNL1       -0.0822
     19 C         142.2970  139.5548  167.3857 C.ar    1  UNL1        0.0159
     20 C         138.6247  140.2351  157.8618 C.3     1  UNL1        0.0278
     21 C         139.4495  139.2738  158.6651 C.3     1  UNL1        0.1121
     22 N         139.9639  138.0152  158.0315 N.am    1  UNL1       -0.2973
     23 C         141.1902  138.0569  157.1688 C.2     1  UNL1        0.2461
     24 O         141.9024  139.3571  156.9398 O.2     1  UNL1       -0.2701
     25 H         139.4965  137.1619  158.1818 H       1  UNL1        0.1500
     26 C         141.7045  136.7983  156.5352 C.ar    1  UNL1        0.0535
     27 C         143.0196  136.2226  156.9705 C.ar    1  UNL1        0.0068
     28 C         143.5339  134.9641  156.3368 C.ar    1  UNL1        0.0298
     29 C         142.7332  134.2812  155.2678 C.ar    1  UNL1        0.1401
     30 F         143.2475  133.0226  154.6342 F       1  UNL1       -0.2042
     31 C         141.4182  134.8569  154.8326 C.ar    1  UNL1        0.0298
     32 C         140.9039  136.1154  155.4663 C.ar    1  UNL1        0.0068
@<TRIPOS>BOND
     1    21    20    1
     2    21    22    1
     3    22    23   am
     4    23    24    2
     5    23    26    1
     6    26    27   ar
     7    27    28   ar
     8    28    29   ar
     9    29    30    1
    10    29    31   ar
    11    31    32   ar
    12    21     1    1
    13     1     2   ar
    14     2     3   ar
    15     3     4   ar
    16     4     5   ar
    17     5     6   ar
    18     5     7    1
    19     7     8    1
    20     8     9    1
    21     9    10    1
    22    10    11   am
    23    11    12    2
    24    11    13    1
    25    13    14   ar
    26    14    15   ar
    27    15    16   ar
    28    16    17   ar
    29    17    18    1
    30    17    19   ar
    31    32    26   ar
    32     6     1   ar
    33    19    13   ar
    34    10     4    1
    35    22    25    1
@<TRIPOS>MOLECULE
*****
 32 35 0 0 0
SMALL
GASTEIGER

@<TRIPOS>ATOM
      1 C         142.3044  139.9864  159.7586 C.ar    1  UNL1        0.0764
      2 C         143.2621  141.1276  159.9329 C.ar    1  UNL1        0.0176
      3 C         144.2609  141.4393  158.8581 C.ar    1  UNL1        0.0174
      4 C         144.3019  140.6098  157.6090 C.ar    1  UNL1        0.0676
      5 C         143.3443  139.4685  157.4348 C.ar    1  UNL1        0.0723
      6 N         142.3455  139.1568  158.5096 N.ar    1  UNL1       -0.2511
      7 C         143.3854  138.6390  156.1857 C.3     1  UNL1        0.0489
      8 C         144.3841  138.9507  155.1109 C.3     1  UNL1        0.0282
      9 C         145.3418  140.0920  155.2851 C.3     1  UNL1        0.0989
     10 N         145.3008  140.9215  156.5341 N.am    1  UNL1       -0.2540
     11 C         146.2584  142.0627  156.7084 C.2     1  UNL1        0.2528
     12 O         146.2174  142.8923  157.9574 O.2     1  UNL1       -0.2696
     13 C         147.2573  142.3745  155.6335 C.ar    1  UNL1        0.0547
     14 C         146.9152  143.3585  154.5543 C.ar    1  UNL1        0.0046
     15 C         147.9140  143.6702  153.4796 C.ar    1  UNL1        0.0010
     16 C         149.2549  142.9979  153.4840 C.ar    1  UNL1        0.0114
     17 C         149.5970  142.0139  154.5631 C.ar    1  UNL1        0.0578
     18 CL        150.9378  141.3416  154.5675 Cl      1  UNL1       -0.0822
     19 C         148.5982  141.7022  155.6379 C.ar    1  UNL1        0.0159
     20 C         140.6214  138.3400  160.8573 C.3     1  UNL1        0.0278
     21 C         141.3056  139.6746  160.8335 C.3     1  UNL1        0.1121
     22 N         140.9910  140.6976  161.8845 N.am    1  UNL1       -0.2973
     23 C         139.6770  141.4204  161.8581 C.2     1  UNL1        0.2461
     24 O         138.6774  141.1203  160.7806 O.2     1  UNL1       -0.2701
     25 H         141.6471  140.8945  162.5917 H       1  UNL1        0.1500
     26 C         139.3624  142.4434  162.9091 C.ar    1  UNL1        0.0535
     27 C         138.1033  143.2532  162.8144 C.ar    1  UNL1        0.0068
     28 C         137.7887  144.2761  163.8654 C.ar    1  UNL1        0.0298
     29 C         138.7333  144.4893  165.0111 C.ar    1  UNL1        0.1401
     30 F         138.4187  145.5122  166.0621 F       1  UNL1       -0.2042
     31 C         139.9923  143.6795  165.1057 C.ar    1  UNL1        0.0298
     32 C         140.3069  142.6565  164.0547 C.ar    1  UNL1        0.0068
@<TRIPOS>BOND
     1    21    20    1
     2    21    22    1
     3    22    23   am
     4    23    24    2
     5    23    26    1
     6    26    27   ar
     7    27    28   ar
     8    28    29   ar
     9    29    30    1
    10    29    31   ar
    11    31    32   ar
    12    21     1    1
    13     1     2   ar
    14     2     3   ar
    15     3     4   ar
    16     4     5   ar
    17     5     6   ar
    18     5     7    1
    19     7     8    1
    20     8     9    1
    21     9    10    1
    22    10    11   am
    23    11    12    2
    24    11    13    1
    25    13    14   ar
    26    14    15   ar
    27    15    16   ar
    28    16    17   ar
    29    17    18    1
    30    17    19   ar
    31    32    26   ar
    32     6     1   ar
    33    19    13   ar
    34    10     4    1
    35    22    25    1
@<TRIPOS>MOLECULE
*****
 32 35 0 0 0
SMALL
GASTEIGER

@<TRIPOS>ATOM
      1 C         141.2805  140.3007  160.3768 C.ar    1  UNL1        0.0764
      2 C         140.0806  140.8740  161.0706 C.ar    1  UNL1        0.0176
      3 C         140.0558  140.9736  162.5670 C.ar    1  UNL1        0.0174
      4 C         141.2310  140.4998  163.3697 C.ar    1  UNL1        0.0676
      5 C         142.4310  139.9265  162.6760 C.ar    1  UNL1        0.0723
      6 N         142.4558  139.8269  161.1795 N.ar    1  UNL1       -0.2511
      7 C         143.6062  139.4527  163.4787 C.3     1  UNL1        0.0489
      8 C         143.5815  139.5522  164.9752 C.3     1  UNL1        0.0282
      9 C         142.3815  140.1255  165.6690 C.3     1  UNL1        0.0989
     10 N         141.2062  140.5993  164.8663 N.am    1  UNL1       -0.2540
     11 C         140.0063  141.1726  165.5600 C.2     1  UNL1        0.2528
     12 O         138.8310  141.6464  164.7573 O.2     1  UNL1       -0.2696
     13 C         139.9815  141.2722  167.0566 C.ar    1  UNL1        0.0547
     14 C         139.5214  140.1048  167.8783 C.ar    1  UNL1        0.0046
     15 C         139.4966  140.2043  169.3748 C.ar    1  UNL1        0.0010
     16 C         139.9319  141.4713  170.0495 C.ar    1  UNL1        0.0114
     17 C         140.3920  142.6388  169.2277 C.ar    1  UNL1        0.0578
     18 CL        140.8274  143.9058  169.9023 Cl      1  UNL1       -0.0822
     19 C         140.4168  142.5392  167.7312 C.ar    1  UNL1        0.0159
     20 C         141.4862  141.4368  158.0493 C.3     1  UNL1        0.0278
     21 C         141.3053  140.2012  158.8803 C.3     1  UNL1        0.1121
     22 N         141.1492  138.8660  158.2148 N.am    1  UNL1       -0.2973
     23 C         142.3434  138.1799  157.6206 C.2     1  UNL1        0.2461
     24 O         143.6939  138.8290  157.6920 O.2     1  UNL1       -0.2701
     25 H         140.2629  138.4400  158.1679 H       1  UNL1        0.1500
     26 C         142.1873  136.8447  156.9551 C.ar    1  UNL1        0.0535
     27 C         143.0930  135.7093  157.3302 C.ar    1  UNL1        0.0068
     28 C         142.9369  134.3741  156.6647 C.ar    1  UNL1        0.0298
     29 C         141.8751  134.1743  155.6241 C.ar    1  UNL1        0.1401
     30 F         141.7189  132.8391  154.9586 F       1  UNL1       -0.2042
     31 C         140.9694  135.3097  155.2491 C.ar    1  UNL1        0.0298
     32 C         141.1256  136.6449  155.9146 C.ar    1  UNL1        0.0068
@<TRIPOS>BOND
     1    21    20    1
     2    21    22    1
     3    22    23   am
     4    23    24    2
     5    23    26    1
     6    26    27   ar
     7    27    28   ar
     8    28    29   ar
     9    29    30    1
    10    29    31   ar
    11    31    32   ar
    12    21     1    1
    13     1     2   ar
    14     2     3   ar
    15     3     4   ar
    16     4     5   ar
    17     5     6   ar
    18     5     7    1
    19     7     8    1
    20     8     9    1
    21     9    10    1
    22    10    11   am
    23    11    12    2
    24    11    13    1
    25    13    14   ar
    26    14    15   ar
    27    15    16   ar
    28    16    17   ar
    29    17    18    1
    30    17    19   ar
    31    32    26   ar
    32     6     1   ar
    33    19    13   ar
    34    10     4    1
    35    22    25    1
