@<TRIPOS>MOLECULE
*****
 28 30 0 0 0
SMALL
GASTEIGER

@<TRIPOS>ATOM
      1 C         140.7853  145.7025  156.7559 C.ar    1  UNL1        0.0518
      2 C         141.2755  144.4755  156.0458 C.ar    1  UNL1        0.0148
      3 C         141.3014  143.1563  156.7591 C.ar    1  UNL1        0.0025
      4 C         140.8373  143.0640  158.1825 C.ar    1  UNL1        0.0148
      5 C         140.3471  144.2910  158.8926 C.ar    1  UNL1        0.0518
      6 C         140.3211  145.6102  158.1793 C.ar    1  UNL1        0.0293
      7 C         139.5365  147.4382  155.2800 C.2     1  UNL1        0.2495
      8 O         138.3398  146.5352  155.2307 O.2     1  UNL1       -0.2698
      9 N         140.7593  147.0218  156.0425 N.am    1  UNL1       -0.2803
     10 H         141.5448  147.6145  156.0749 H       1  UNL1        0.1552
     11 C         138.4060  152.5097  155.2383 C.3     1  UNL1        0.0310
     12 C         138.9453  151.2932  154.5459 C.ar    1  UNL1       -0.0217
     13 C         139.4585  151.3961  153.1402 C.ar    1  UNL1       -0.0043
     14 C         139.9977  150.1796  152.4477 C.ar    1  UNL1       -0.0002
     15 C         140.0237  148.8603  153.1610 C.ar    1  UNL1        0.0045
     16 C         139.5105  148.7575  154.5667 C.ar    1  UNL1        0.0534
     17 C         138.9713  149.9739  155.2591 C.ar    1  UNL1        0.0003
     18 N         139.8829  144.1987  160.3160 N.am    1  UNL1       -0.2803
     19 C         140.8779  144.2758  161.4358 C.2     1  UNL1        0.2495
     20 O         142.3371  144.4451  161.1323 O.2     1  UNL1       -0.2698
     21 H         138.9252  144.0876  160.5152 H       1  UNL1        0.1552
     22 C         140.4137  144.1835  162.8592 C.ar    1  UNL1        0.0534
     23 C         139.1827  144.9211  163.2959 C.ar    1  UNL1        0.0045
     24 C         138.7186  144.8288  164.7193 C.ar    1  UNL1       -0.0002
     25 C         139.4854  143.9990  165.7060 C.ar    1  UNL1       -0.0043
     26 C         140.7163  143.2614  165.2692 C.ar    1  UNL1       -0.0217
     27 C         141.4831  142.4316  166.2558 C.3     1  UNL1        0.0310
     28 C         141.1805  143.3537  163.8458 C.ar    1  UNL1        0.0003
@<TRIPOS>BOND
     1    11    12    1
     2    12    13   ar
     3    13    14   ar
     4    14    15   ar
     5    15    16   ar
     6    16     7    1
     7     7     8    2
     8     7     9   am
     9     9     1    1
    10     1     2   ar
    11     2     3   ar
    12     3     4   ar
    13     4     5   ar
    14     5    18    1
    15    18    19   am
    16    19    20    2
    17    19    22    1
    18    22    23   ar
    19    23    24   ar
    20    24    25   ar
    21    25    26   ar
    22    26    27    1
    23    26    28   ar
    24     5     6   ar
    25    16    17   ar
    26    17    12   ar
    27     6     1   ar
    28    28    22   ar
    29     9    10    1
    30    18    21    1
@<TRIPOS>MOLECULE
*****
 28 30 0 0 0
SMALL
GASTEIGER

@<TRIPOS>ATOM
      1 C         139.9417  137.8381  156.6628 C.ar    1  UNL1        0.0518
      2 C         139.3606  138.6100  155.5154 C.ar    1  UNL1        0.0148
      3 C         138.7544  139.9616  155.7513 C.ar    1  UNL1        0.0025
      4 C         138.7293  140.5413  157.1346 C.ar    1  UNL1        0.0148
      5 C         139.3104  139.7694  158.2819 C.ar    1  UNL1        0.0518
      6 C         139.9166  138.4178  158.0460 C.ar    1  UNL1        0.0293
      7 C         142.0391  136.3240  156.4209 C.2     1  UNL1        0.2495
      8 O         142.9240  137.5131  156.6507 O.2     1  UNL1       -0.2698
      9 N         140.5479  136.4865  156.4269 N.am    1  UNL1       -0.2803
     10 H         139.9671  135.7060  156.2761 H       1  UNL1        0.1552
     11 C         145.1527  132.4583  157.9578 C.3     1  UNL1        0.0310
     12 C         144.2021  133.0395  156.9535 C.ar    1  UNL1       -0.0217
     13 C         143.8578  132.2692  155.7134 C.ar    1  UNL1       -0.0043
     14 C         142.9072  132.8504  154.7091 C.ar    1  UNL1       -0.0002
     15 C         142.3010  134.2020  154.9449 C.ar    1  UNL1        0.0045
     16 C         142.6453  134.9723  156.1850 C.ar    1  UNL1        0.0534
     17 C         143.5959  134.3911  157.1893 C.ar    1  UNL1        0.0003
     18 N         139.2853  140.3491  159.6651 N.am    1  UNL1       -0.2803
     19 C         138.0315  140.2781  160.4854 C.2     1  UNL1        0.2495
     20 O         136.8027  139.6274  159.9225 O.2     1  UNL1       -0.2698
     21 H         140.0917  140.7761  160.0346 H       1  UNL1        0.1552
     22 C         138.0064  140.8578  161.8687 C.ar    1  UNL1        0.0534
     23 C         137.8574  142.3382  162.0588 C.ar    1  UNL1        0.0045
     24 C         137.8323  142.9179  163.4421 C.ar    1  UNL1       -0.0002
     25 C         137.9562  142.0171  164.6351 C.ar    1  UNL1       -0.0043
     26 C         138.1051  140.5367  164.4449 C.ar    1  UNL1       -0.0217
     27 C         138.2289  139.6360  165.6380 C.3     1  UNL1        0.0310
     28 C         138.1302  139.9571  163.0617 C.ar    1  UNL1        0.0003
@<TRIPOS>BOND
     1    11    12    1
     2    12    13   ar
     3    13    14   ar
     4    14    15   ar
     5    15    16   ar
     6    16     7    1
     7     7     8    2
     8     7     9   am
     9     9     1    1
    10     1     2   ar
    11     2     3   ar
    12     3     4   ar
    13     4     5   ar
    14     5    18    1
    15    18    19   am
    16    19    20    2
    17    19    22    1
    18    22    23   ar
    19    23    24   ar
    20    24    25   ar
    21    25    26   ar
    22    26    27    1
    23    26    28   ar
    24     5     6   ar
    25    16    17   ar
    26    17    12   ar
    27     6     1   ar
    28    28    22   ar
    29     9    10    1
    30    18    21    1
@<TRIPOS>MOLECULE
*****
 28 30 0 0 0
SMALL
GASTEIGER

@<TRIPOS>ATOM
      1 C         140.9772  143.7689  160.7937 C.ar    1  UNL1        0.0518
      2 C         140.6405  145.2233  160.6474 C.ar    1  UNL1        0.0148
      3 C         139.9460  145.9481  161.7619 C.ar    1  UNL1        0.0025
      4 C         139.5883  145.2186  163.0228 C.ar    1  UNL1        0.0148
      5 C         139.9250  143.7642  163.1691 C.ar    1  UNL1        0.0518
      6 C         140.6195  143.0394  162.0545 C.ar    1  UNL1        0.0293
      7 C         143.1593  142.8561  159.7189 C.2     1  UNL1        0.2495
      8 O         143.9525  143.3930  160.8732 O.2     1  UNL1       -0.2698
      9 N         141.6717  143.0440  159.6791 N.am    1  UNL1       -0.2803
     10 H         141.1511  142.6916  158.9214 H       1  UNL1        0.1552
     11 C         147.1652  142.4282  156.4371 C.3     1  UNL1        0.0310
     12 C         145.8568  141.9173  156.9634 C.ar    1  UNL1       -0.0217
     13 C         145.2429  140.6815  156.3752 C.ar    1  UNL1       -0.0043
     14 C         143.9345  140.1706  156.9015 C.ar    1  UNL1       -0.0002
     15 C         143.2399  140.8954  158.0161 C.ar    1  UNL1        0.0045
     16 C         143.8538  142.1312  158.6043 C.ar    1  UNL1        0.0534
     17 C         145.1623  142.6421  158.0779 C.ar    1  UNL1        0.0003
     18 N         139.5673  143.0347  164.4300 N.am    1  UNL1       -0.2803
     19 C         140.6204  142.7600  165.4621 C.2     1  UNL1        0.2495
     20 O         142.0314  143.2149  165.2334 O.2     1  UNL1       -0.2698
     21 H         138.6412  142.7361  164.5801 H       1  UNL1        0.1552
     22 C         140.2627  142.0305  166.7230 C.ar    1  UNL1        0.0534
     23 C         139.7146  140.6360  166.6529 C.ar    1  UNL1        0.0045
     24 C         139.3568  139.9064  167.9137 C.ar    1  UNL1       -0.0002
     25 C         139.5472  140.5715  169.2448 C.ar    1  UNL1       -0.0043
     26 C         140.0954  141.9659  169.3149 C.ar    1  UNL1       -0.0217
     27 C         140.2857  142.6309  170.6458 C.3     1  UNL1        0.0310
     28 C         140.4531  142.6955  168.0540 C.ar    1  UNL1        0.0003
@<TRIPOS>BOND
     1    11    12    1
     2    12    13   ar
     3    13    14   ar
     4    14    15   ar
     5    15    16   ar
     6    16     7    1
     7     7     8    2
     8     7     9   am
     9     9     1    1
    10     1     2   ar
    11     2     3   ar
    12     3     4   ar
    13     4     5   ar
    14     5    18    1
    15    18    19   am
    16    19    20    2
    17    19    22    1
    18    22    23   ar
    19    23    24   ar
    20    24    25   ar
    21    25    26   ar
    22    26    27    1
    23    26    28   ar
    24     5     6   ar
    25    16    17   ar
    26    17    12   ar
    27     6     1   ar
    28    28    22   ar
    29     9    10    1
    30    18    21    1
@<TRIPOS>MOLECULE
*****
 28 30 0 0 0
SMALL
GASTEIGER

@<TRIPOS>ATOM
      1 C         139.6777  143.3437  164.9942 C.ar    1  UNL1        0.0518
      2 C         138.2247  143.6907  165.1295 C.ar    1  UNL1        0.0148
      3 C         137.4194  144.0354  163.9119 C.ar    1  UNL1        0.0025
      4 C         138.0671  144.0330  162.5589 C.ar    1  UNL1        0.0148
      5 C         139.5201  143.6859  162.4236 C.ar    1  UNL1        0.0518
      6 C         140.3254  143.3412  163.6413 C.ar    1  UNL1        0.0293
      7 C         140.6382  141.5661  166.6276 C.2     1  UNL1        0.2495
      8 O         139.9881  140.4779  165.8256 O.2     1  UNL1       -0.2698
      9 N         140.4830  142.9990  166.2119 N.am    1  UNL1       -0.2803
     10 H         140.9098  143.7132  166.7382 H       1  UNL1        0.1552
     11 C         144.4232  142.7218  169.9948 C.3     1  UNL1        0.0310
     12 C         143.3361  141.7993  169.5288 C.ar    1  UNL1       -0.0217
     13 C         143.0543  140.5322  170.2805 C.ar    1  UNL1       -0.0043
     14 C         141.9672  139.6097  169.8145 C.ar    1  UNL1       -0.0002
     15 C         141.1618  139.9543  168.5969 C.ar    1  UNL1        0.0045
     16 C         141.4436  141.2215  167.8453 C.ar    1  UNL1        0.0534
     17 C         142.5307  142.1440  168.3112 C.ar    1  UNL1        0.0003
     18 N         140.1678  143.6835  161.0707 N.am    1  UNL1       -0.2803
     19 C         140.2270  144.9475  160.2652 C.2     1  UNL1        0.2495
     20 O         139.6386  146.2140  160.8128 O.2     1  UNL1       -0.2698
     21 H         140.5540  142.8522  160.7113 H       1  UNL1        0.1552
     22 C         140.8747  144.9450  158.9123 C.ar    1  UNL1        0.0534
     23 C         142.0539  144.0566  158.6469 C.ar    1  UNL1        0.0045
     24 C         142.7016  144.0542  157.2939 C.ar    1  UNL1       -0.0002
     25 C         142.1701  144.9402  156.2064 C.ar    1  UNL1       -0.0043
     26 C         140.9910  145.8285  156.4718 C.ar    1  UNL1       -0.0217
     27 C         140.4596  146.7144  155.3843 C.3     1  UNL1        0.0310
     28 C         140.3433  145.8309  157.8248 C.ar    1  UNL1        0.0003
@<TRIPOS>BOND
     1    11    12    1
     2    12    13   ar
     3    13    14   ar
     4    14    15   ar
     5    15    16   ar
     6    16     7    1
     7     7     8    2
     8     7     9   am
     9     9     1    1
    10     1     2   ar
    11     2     3   ar
    12     3     4   ar
    13     4     5   ar
    14     5    18    1
    15    18    19   am
    16    19    20    2
    17    19    22    1
    18    22    23   ar
    19    23    24   ar
    20    24    25   ar
    21    25    26   ar
    22    26    27    1
    23    26    28   ar
    24     5     6   ar
    25    16    17   ar
    26    17    12   ar
    27     6     1   ar
    28    28    22   ar
    29     9    10    1
    30    18    21    1
@<TRIPOS>MOLECULE
*****
 28 30 0 0 0
SMALL
GASTEIGER

@<TRIPOS>ATOM
      1 C         139.3199  139.7678  158.2239 C.ar    1  UNL1        0.0518
      2 C         138.7506  140.5468  157.0755 C.ar    1  UNL1        0.0148
      3 C         138.7742  139.9683  155.6918 C.ar    1  UNL1        0.0025
      4 C         139.3671  138.6107  155.4565 C.ar    1  UNL1        0.0148
      5 C         139.9364  137.8316  156.6049 C.ar    1  UNL1        0.0518
      6 C         139.9128  138.4101  157.9886 C.ar    1  UNL1        0.0293
      7 C         138.0344  140.3027  160.4174 C.2     1  UNL1        0.2495
      8 O         136.7960  139.6806  159.8434 O.2     1  UNL1       -0.2698
      9 N         139.2963  140.3463  159.6077 N.am    1  UNL1       -0.2803
     10 H         140.1090  140.7546  159.9845 H       1  UNL1        0.1552
     11 C         138.2150  139.6539  165.5698 C.3     1  UNL1        0.0310
     12 C         138.1011  140.5568  164.3774 C.ar    1  UNL1       -0.0217
     13 C         137.9636  142.0381  164.5687 C.ar    1  UNL1       -0.0043
     14 C         137.8497  142.9410  163.3763 C.ar    1  UNL1       -0.0002
     15 C         137.8733  142.3626  161.9926 C.ar    1  UNL1        0.0045
     16 C         138.0108  140.8812  161.8012 C.ar    1  UNL1        0.0534
     17 C         138.1247  139.9783  162.9936 C.ar    1  UNL1        0.0003
     18 N         140.5293  136.4740  156.3697 N.am    1  UNL1       -0.2803
     19 C         142.0160  136.2842  156.4293 C.2     1  UNL1        0.2495
     20 O         142.9099  137.4522  156.7243 O.2     1  UNL1       -0.2698
     21 H         139.9426  135.7075  156.1761 H       1  UNL1        0.1552
     22 C         142.6089  134.9266  156.1941 C.ar    1  UNL1        0.0534
     23 C         142.2325  134.1458  154.9698 C.ar    1  UNL1        0.0045
     24 C         142.8254  132.7881  154.7346 C.ar    1  UNL1       -0.0002
     25 C         143.7946  132.2114  155.7235 C.ar    1  UNL1       -0.0043
     26 C         144.1710  132.9923  156.9476 C.ar    1  UNL1       -0.0217
     27 C         145.1402  132.4155  157.9365 C.3     1  UNL1        0.0310
     28 C         143.5781  134.3499  157.1829 C.ar    1  UNL1        0.0003
@<TRIPOS>BOND
     1    11    12    1
     2    12    13   ar
     3    13    14   ar
     4    14    15   ar
     5    15    16   ar
     6    16     7    1
     7     7     8    2
     8     7     9   am
     9     9     1    1
    10     1     2   ar
    11     2     3   ar
    12     3     4   ar
    13     4     5   ar
    14     5    18    1
    15    18    19   am
    16    19    20    2
    17    19    22    1
    18    22    23   ar
    19    23    24   ar
    20    24    25   ar
    21    25    26   ar
    22    26    27    1
    23    26    28   ar
    24     5     6   ar
    25    16    17   ar
    26    17    12   ar
    27     6     1   ar
    28    28    22   ar
    29     9    10    1
    30    18    21    1
@<TRIPOS>MOLECULE
*****
 28 30 0 0 0
SMALL
GASTEIGER

@<TRIPOS>ATOM
      1 C         140.3075  137.8130  156.6484 C.ar    1  UNL1        0.0518
      2 C         139.8425  138.6536  155.4965 C.ar    1  UNL1        0.0148
      3 C         139.2841  140.0234  155.7450 C.ar    1  UNL1        0.0025
      4 C         139.1906  140.5525  157.1454 C.ar    1  UNL1        0.0148
      5 C         139.6555  139.7118  158.2974 C.ar    1  UNL1        0.0518
      6 C         140.2140  138.3421  158.0489 C.ar    1  UNL1        0.0293
      7 C         142.3418  136.2022  156.5178 C.2     1  UNL1        0.2495
      8 O         143.2592  137.3310  156.8841 O.2     1  UNL1       -0.2698
      9 N         140.8660  136.4431  156.3999 N.am    1  UNL1       -0.2803
     10 H         140.2640  135.7022  156.1595 H       1  UNL1        0.1552
     11 C         145.3071  132.2102  158.0247 C.3     1  UNL1        0.0310
     12 C         144.3830  132.8364  157.0228 C.ar    1  UNL1       -0.0217
     13 C         144.0174  132.0928  155.7725 C.ar    1  UNL1       -0.0043
     14 C         143.0932  132.7190  154.7705 C.ar    1  UNL1       -0.0002
     15 C         142.5347  134.0888  155.0190 C.ar    1  UNL1        0.0045
     16 C         142.9003  134.8323  156.2693 C.ar    1  UNL1        0.0534
     17 C         143.8245  134.2061  157.2712 C.ar    1  UNL1        0.0003
     18 N         139.5620  140.2409  159.6979 N.am    1  UNL1       -0.2803
     19 C         138.2428  140.2446  160.4117 C.2     1  UNL1        0.2495
     20 O         137.0170  139.7190  159.7251 O.2     1  UNL1       -0.2698
     21 H         140.3665  140.5858  160.1485 H       1  UNL1        0.1552
     22 C         138.1493  140.7737  161.8122 C.ar    1  UNL1        0.0534
     23 C         138.1970  139.8283  162.9759 C.ar    1  UNL1        0.0045
     24 C         138.1035  140.3574  164.3763 C.ar    1  UNL1       -0.0002
     25 C         137.9623  141.8319  164.6131 C.ar    1  UNL1       -0.0043
     26 C         137.9147  142.7772  163.4495 C.ar    1  UNL1       -0.0217
     27 C         137.7736  144.2516  163.6863 C.3     1  UNL1        0.0310
     28 C         138.0082  142.2481  162.0490 C.ar    1  UNL1        0.0003
@<TRIPOS>BOND
     1    11    12    1
     2    12    13   ar
     3    13    14   ar
     4    14    15   ar
     5    15    16   ar
     6    16     7    1
     7     7     8    2
     8     7     9   am
     9     9     1    1
    10     1     2   ar
    11     2     3   ar
    12     3     4   ar
    13     4     5   ar
    14     5    18    1
    15    18    19   am
    16    19    20    2
    17    19    22    1
    18    22    23   ar
    19    23    24   ar
    20    24    25   ar
    21    25    26   ar
    22    26    27    1
    23    26    28   ar
    24     5     6   ar
    25    16    17   ar
    26    17    12   ar
    27     6     1   ar
    28    28    22   ar
    29     9    10    1
    30    18    21    1
@<TRIPOS>MOLECULE
*****
 28 30 0 0 0
SMALL
GASTEIGER

@<TRIPOS>ATOM
      1 C         140.4403  144.1975  159.3478 C.ar    1  UNL1        0.0518
      2 C         140.2812  142.9120  158.5914 C.ar    1  UNL1        0.0148
      3 C         140.1982  142.9284  157.0939 C.ar    1  UNL1        0.0025
      4 C         140.2743  144.2303  156.3527 C.ar    1  UNL1        0.0148
      5 C         140.4335  145.5158  157.1091 C.ar    1  UNL1        0.0518
      6 C         140.5165  145.4994  158.6066 C.ar    1  UNL1        0.0293
      7 C         139.3439  143.7340  161.6572 C.2     1  UNL1        0.2495
      8 O         138.0814  143.3032  160.9713 O.2     1  UNL1       -0.2698
      9 N         140.5234  144.1812  160.8455 N.am    1  UNL1       -0.2803
     10 H         141.3520  144.4639  161.2957 H       1  UNL1        0.1552
     11 C         141.1153  141.5823  166.0427 C.3     1  UNL1        0.0310
     12 C         140.3126  142.6418  165.3475 C.ar    1  UNL1       -0.0217
     13 C         139.5930  143.6849  166.1500 C.ar    1  UNL1       -0.0043
     14 C         138.7903  144.7444  165.4549 C.ar    1  UNL1       -0.0002
     15 C         138.7073  144.7608  163.9573 C.ar    1  UNL1        0.0045
     16 C         139.4269  143.7177  163.1549 C.ar    1  UNL1        0.0534
     17 C         140.2296  142.6582  163.8500 C.ar    1  UNL1        0.0003
     18 N         140.5096  146.8176  156.3679 N.am    1  UNL1       -0.2803
     19 C         139.3863  147.2334  155.4650 C.2     1  UNL1        0.2495
     20 O         138.1868  146.3473  155.3033 O.2     1  UNL1       -0.2698
     21 H         141.2969  147.3992  156.4740 H       1  UNL1        0.1552
     22 C         139.4624  148.5353  154.7238 C.ar    1  UNL1        0.0534
     23 C         140.1022  148.5902  153.3681 C.ar    1  UNL1        0.0045
     24 C         140.1783  149.8921  152.6270 C.ar    1  UNL1       -0.0002
     25 C         139.6147  151.1390  153.2414 C.ar    1  UNL1       -0.0043
     26 C         138.9750  151.0841  154.5970 C.ar    1  UNL1       -0.0217
     27 C         138.4114  152.3310  155.2115 C.3     1  UNL1        0.0310
     28 C         138.8988  149.7822  155.3382 C.ar    1  UNL1        0.0003
@<TRIPOS>BOND
     1    11    12    1
     2    12    13   ar
     3    13    14   ar
     4    14    15   ar
     5    15    16   ar
     6    16     7    1
     7     7     8    2
     8     7     9   am
     9     9     1    1
    10     1     2   ar
    11     2     3   ar
    12     3     4   ar
    13     4     5   ar
    14     5    18    1
    15    18    19   am
    16    19    20    2
    17    19    22    1
    18    22    23   ar
    19    23    24   ar
    20    24    25   ar
    21    25    26   ar
    22    26    27    1
    23    26    28   ar
    24     5     6   ar
    25    16    17   ar
    26    17    12   ar
    27     6     1   ar
    28    28    22   ar
    29     9    10    1
    30    18    21    1
@<TRIPOS>MOLECULE
*****
 28 30 0 0 0
SMALL
GASTEIGER

@<TRIPOS>ATOM
      1 C         140.9841  144.1794  163.1403 C.ar    1  UNL1        0.0518
      2 C         140.0120  145.2459  162.7312 C.ar    1  UNL1        0.0148
      3 C         140.0280  145.7772  161.3285 C.ar    1  UNL1        0.0025
      4 C         141.0162  145.2420  160.3350 C.ar    1  UNL1        0.0148
      5 C         141.9883  144.1755  160.7441 C.ar    1  UNL1        0.0518
      6 C         141.9723  143.6442  162.1468 C.ar    1  UNL1        0.0293
      7 C         140.0109  142.5567  164.9207 C.2     1  UNL1        0.2495
      8 O         139.0696  141.9967  163.8958 O.2     1  UNL1       -0.2698
      9 N         140.9681  143.6480  164.5430 N.am    1  UNL1       -0.2803
     10 H         141.5859  144.0155  165.2156 H       1  UNL1        0.1552
     11 C         140.7767  143.2670  170.0108 C.3     1  UNL1        0.0310
     12 C         140.3779  142.3805  168.8684 C.ar    1  UNL1       -0.0217
     13 C         139.9630  140.9627  169.1287 C.ar    1  UNL1       -0.0043
     14 C         139.5641  140.0763  167.9863 C.ar    1  UNL1       -0.0002
     15 C         139.5801  140.6076  166.5836 C.ar    1  UNL1        0.0045
     16 C         139.9949  142.0253  166.3234 C.ar    1  UNL1        0.0534
     17 C         140.3938  142.9118  167.4658 C.ar    1  UNL1        0.0003
     18 N         142.9765  143.6403  159.7506 N.am    1  UNL1       -0.2803
     19 C         142.6800  142.3720  159.0066 C.2     1  UNL1        0.2495
     20 O         141.3954  141.6388  159.2562 O.2     1  UNL1       -0.2698
     21 H         143.8196  144.1214  159.5868 H       1  UNL1        0.1552
     22 C         143.6682  141.8368  158.0131 C.ar    1  UNL1        0.0534
     23 C         143.3237  140.6334  157.1864 C.ar    1  UNL1        0.0045
     24 C         144.3119  140.0982  156.1929 C.ar    1  UNL1       -0.0002
     25 C         145.6445  140.7664  156.0261 C.ar    1  UNL1       -0.0043
     26 C         145.9889  141.9697  156.8528 C.ar    1  UNL1       -0.0217
     27 C         147.3215  142.6377  156.6859 C.3     1  UNL1        0.0310
     28 C         145.0008  142.5049  157.8463 C.ar    1  UNL1        0.0003
@<TRIPOS>BOND
     1    11    12    1
     2    12    13   ar
     3    13    14   ar
     4    14    15   ar
     5    15    16   ar
     6    16     7    1
     7     7     8    2
     8     7     9   am
     9     9     1    1
    10     1     2   ar
    11     2     3   ar
    12     3     4   ar
    13     4     5   ar
    14     5    18    1
    15    18    19   am
    16    19    20    2
    17    19    22    1
    18    22    23   ar
    19    23    24   ar
    20    24    25   ar
    21    25    26   ar
    22    26    27    1
    23    26    28   ar
    24     5     6   ar
    25    16    17   ar
    26    17    12   ar
    27     6     1   ar
    28    28    22   ar
    29     9    10    1
    30    18    21    1
@<TRIPOS>MOLECULE
*****
 28 30 0 0 0
SMALL
GASTEIGER

@<TRIPOS>ATOM
      1 C         139.2163  139.5554  164.8871 C.ar    1  UNL1        0.0518
      2 C         138.9060  138.0948  164.7443 C.ar    1  UNL1        0.0148
      3 C         138.8514  137.4694  163.3821 C.ar    1  UNL1        0.0025
      4 C         139.1071  138.3045  162.1626 C.ar    1  UNL1        0.0148
      5 C         139.4174  139.7651  162.3054 C.ar    1  UNL1        0.0518
      6 C         139.4720  140.3905  163.6676 C.ar    1  UNL1        0.0293
      7 C         140.5532  140.1731  167.0275 C.2     1  UNL1        0.2495
      8 O         141.7811  139.5398  166.4432 O.2     1  UNL1       -0.2698
      9 N         139.2709  140.1809  166.2494 N.am    1  UNL1       -0.2803
     10 H         138.4650  140.5965  166.6329 H       1  UNL1        0.1552
     11 C         140.3229  144.3893  170.0557 C.3     1  UNL1        0.0310
     12 C         140.4926  142.9067  169.9039 C.ar    1  UNL1       -0.0217
     13 C         140.7170  142.0496  171.1142 C.ar    1  UNL1       -0.0043
     14 C         140.8867  140.5670  170.9624 C.ar    1  UNL1       -0.0002
     15 C         140.8322  139.9415  169.6001 C.ar    1  UNL1        0.0045
     16 C         140.6078  140.7986  168.3898 C.ar    1  UNL1        0.0534
     17 C         140.4381  142.2812  168.5416 C.ar    1  UNL1        0.0003
     18 N         139.6732  140.6002  161.0859 N.am    1  UNL1       -0.2803
     19 C         138.7506  141.7329  160.7456 C.2     1  UNL1        0.2495
     20 O         137.5722  142.0305  161.6248 O.2     1  UNL1       -0.2698
     21 H         140.4465  140.4049  160.5088 H       1  UNL1        0.1552
     22 C         139.0063  142.5680  159.5261 C.ar    1  UNL1        0.0534
     23 C         138.2559  142.2917  158.2570 C.ar    1  UNL1        0.0045
     24 C         138.5116  143.1268  157.0375 C.ar    1  UNL1       -0.0002
     25 C         139.5178  144.2383  157.0871 C.ar    1  UNL1       -0.0043
     26 C         140.2681  144.5145  158.3562 C.ar    1  UNL1       -0.0217
     27 C         141.2742  145.6259  158.4057 C.3     1  UNL1        0.0310
     28 C         140.0124  143.6794  159.5756 C.ar    1  UNL1        0.0003
@<TRIPOS>BOND
     1    11    12    1
     2    12    13   ar
     3    13    14   ar
     4    14    15   ar
     5    15    16   ar
     6    16     7    1
     7     7     8    2
     8     7     9   am
     9     9     1    1
    10     1     2   ar
    11     2     3   ar
    12     3     4   ar
    13     4     5   ar
    14     5    18    1
    15    18    19   am
    16    19    20    2
    17    19    22    1
    18    22    23   ar
    19    23    24   ar
    20    24    25   ar
    21    25    26   ar
    22    26    27    1
    23    26    28   ar
    24     5     6   ar
    25    16    17   ar
    26    17    12   ar
    27     6     1   ar
    28    28    22   ar
    29     9    10    1
    30    18    21    1
