@<TRIPOS>MOLECULE
*****
 31 34 0 0 0
SMALL
GASTEIGER

@<TRIPOS>ATOM
      1 C         138.1088  141.0325  161.2411 C.3     1  UNL1        0.0212
      2 C         137.4164  139.7494  160.8890 C.3     1  UNL1        0.0488
      3 C         137.7343  138.4936  161.6452 C.3     1  UNL1        0.2054
      4 O         139.0322  137.7812  161.4043 O.3     1  UNL1       -0.4754
      5 O         145.6982  141.6911  162.4180 O.2     1  UNL1       -0.2748
      6 C         144.6770  140.7129  162.9182 C.2     1  UNL1        0.2264
      7 C         144.8565  140.0598  164.2565 C.3     1  UNL1        0.0901
      8 C         143.8353  139.0815  164.7568 C.3     1  UNL1        0.0372
      9 C         142.6345  138.7565  163.9187 C.ar    1  UNL1       -0.0080
     10 C         141.6133  137.7782  164.4189 C.ar    1  UNL1        0.0001
     11 C         140.4126  137.4532  163.5808 C.ar    1  UNL1        0.0367
     12 C         140.2330  138.1063  162.2424 C.ar    1  UNL1        0.1398
     13 C         141.2542  139.0845  161.7422 C.ar    1  UNL1        0.0512
     14 C         142.4550  139.4096  162.5804 C.ar    1  UNL1        0.0493
     15 N         143.4762  140.3878  162.0801 N.am    1  UNL1       -0.2841
     16 H         143.3583  140.8165  161.2017 H       1  UNL1        0.1548
     17 C         137.7800  141.7343  162.5254 C.3     1  UNL1        0.0723
     18 N         138.6217  141.5005  163.7447 N.3     1  UNL1       -0.2698
     19 C         139.9236  142.2274  163.9080 C.3     1  UNL1        0.0938
     20 C         140.7654  141.9936  165.1273 C.3     1  UNL1        0.1081
     21 N         140.3053  141.0327  166.1833 N.pl3   1  UNL1       -0.3040
     22 C         139.0034  140.3058  166.0200 C.3     1  UNL1        0.1081
     23 C         138.1616  140.5397  164.8006 C.3     1  UNL1        0.0938
     24 C         141.1470  140.7989  167.4026 C.ar    1  UNL1        0.0594
     25 C         141.8800  139.5010  167.5704 C.ar    1  UNL1        0.0154
     26 C         142.7218  139.2671  168.7898 C.ar    1  UNL1        0.0022
     27 C         142.8306  140.3313  169.8413 C.ar    1  UNL1        0.0123
     28 C         142.0977  141.6292  169.6735 C.ar    1  UNL1        0.0694
     29 CL        142.2065  142.6933  170.7251 Cl      1  UNL1       -0.0813
     30 C         141.2559  141.8630  168.4543 C.ar    1  UNL1        0.0815
     31 CL        140.5230  143.1610  168.2865 Cl      1  UNL1       -0.0801
@<TRIPOS>BOND
     1     5     6    2
     2     6     7    1
     3     7     8    1
     4     8     9    1
     5     9    10   ar
     6    10    11   ar
     7    11    12   ar
     8    12     4    1
     9     4     3    1
    10     3     2    1
    11     2     1    1
    12     1    17    1
    13    17    18    1
    14    18    19    1
    15    19    20    1
    16    20    21    1
    17    21    24    1
    18    24    25   ar
    19    25    26   ar
    20    26    27   ar
    21    27    28   ar
    22    28    29    1
    23    28    30   ar
    24    30    31    1
    25    21    22    1
    26    22    23    1
    27    12    13   ar
    28    13    14   ar
    29    14    15    1
    30    15     6   am
    31    14     9   ar
    32    23    18    1
    33    30    24   ar
    34    15    16    1
@<TRIPOS>MOLECULE
*****
 31 34 0 0 0
SMALL
GASTEIGER

@<TRIPOS>ATOM
      1 C         144.2200  138.4818  161.9594 C.3     1  UNL1        0.0212
      2 C         143.6474  138.4442  160.5735 C.3     1  UNL1        0.0488
      3 C         142.2373  137.9809  160.3569 C.3     1  UNL1        0.2054
      4 O         141.4398  137.4422  161.5075 O.3     1  UNL1       -0.4754
      5 O         137.8330  144.2930  162.4063 O.2     1  UNL1       -0.2748
      6 C         138.1901  142.9341  162.9316 C.2     1  UNL1        0.2264
      7 C         137.7019  142.5000  164.2819 C.3     1  UNL1        0.0901
      8 C         138.0590  141.1411  164.8072 C.3     1  UNL1        0.0372
      9 C         138.9042  140.2164  163.9823 C.ar    1  UNL1       -0.0080
     10 C         139.2612  138.8575  164.5076 C.ar    1  UNL1        0.0001
     11 C         140.1064  137.9328  163.6827 C.ar    1  UNL1        0.0367
     12 C         140.5946  138.3669  162.3324 C.ar    1  UNL1        0.1398
     13 C         140.2375  139.7258  161.8071 C.ar    1  UNL1        0.0512
     14 C         139.3923  140.6505  162.6321 C.ar    1  UNL1        0.0493
     15 N         139.0352  142.0094  162.1067 N.am    1  UNL1       -0.2841
     16 H         139.3556  142.2944  161.2205 H       1  UNL1        0.1548
     17 C         144.2971  139.7816  162.7040 C.3     1  UNL1        0.0723
     18 N         143.5251  139.9636  163.9772 N.3     1  UNL1       -0.2698
     19 C         142.7441  141.2234  164.2072 C.3     1  UNL1        0.0938
     20 C         141.9721  141.4053  165.4804 C.3     1  UNL1        0.1081
     21 N         141.9811  140.3274  166.5235 N.pl3   1  UNL1       -0.3040
     22 C         142.7620  139.0675  166.2934 C.3     1  UNL1        0.1081
     23 C         143.5340  138.8856  165.0202 C.3     1  UNL1        0.0938
     24 C         141.2091  140.5093  167.7966 C.ar    1  UNL1        0.0594
     25 C         139.7970  140.0129  167.8949 C.ar    1  UNL1        0.0154
     26 C         139.0250  140.1949  169.1681 C.ar    1  UNL1        0.0022
     27 C         139.6651  140.8732  170.3429 C.ar    1  UNL1        0.0123
     28 C         141.0771  141.3695  170.2446 C.ar    1  UNL1        0.0694
     29 CL        141.7172  142.0478  171.4194 Cl      1  UNL1       -0.0813
     30 C         141.8491  141.1876  168.9715 C.ar    1  UNL1        0.0815
     31 CL        143.2612  141.6840  168.8732 Cl      1  UNL1       -0.0801
@<TRIPOS>BOND
     1     5     6    2
     2     6     7    1
     3     7     8    1
     4     8     9    1
     5     9    10   ar
     6    10    11   ar
     7    11    12   ar
     8    12     4    1
     9     4     3    1
    10     3     2    1
    11     2     1    1
    12     1    17    1
    13    17    18    1
    14    18    19    1
    15    19    20    1
    16    20    21    1
    17    21    24    1
    18    24    25   ar
    19    25    26   ar
    20    26    27   ar
    21    27    28   ar
    22    28    29    1
    23    28    30   ar
    24    30    31    1
    25    21    22    1
    26    22    23    1
    27    12    13   ar
    28    13    14   ar
    29    14    15    1
    30    15     6   am
    31    14     9   ar
    32    23    18    1
    33    30    24   ar
    34    15    16    1
@<TRIPOS>MOLECULE
*****
 31 34 0 0 0
SMALL
GASTEIGER

@<TRIPOS>ATOM
      1 C         140.2218  137.8115  162.0504 C.3     1  UNL1        0.0212
      2 C         139.0911  138.2672  161.1764 C.3     1  UNL1        0.0488
      3 C         137.8752  138.8956  161.7900 C.3     1  UNL1        0.2054
      4 O         137.5158  140.3139  161.4589 O.3     1  UNL1       -0.4754
      5 O         143.8435  144.7773  162.3467 O.2     1  UNL1       -0.2748
      6 C         142.4395  144.4216  162.7370 C.2     1  UNL1        0.2264
      7 C         141.7408  145.1981  163.8135 C.3     1  UNL1        0.0901
      8 C         140.3368  144.8424  164.2038 C.3     1  UNL1        0.0372
      9 C         139.6316  143.7103  163.5176 C.ar    1  UNL1       -0.0080
     10 C         138.2276  143.3546  163.9079 C.ar    1  UNL1        0.0001
     11 C         137.5223  142.2225  163.2217 C.ar    1  UNL1        0.0367
     12 C         138.2211  141.4460  162.1451 C.ar    1  UNL1        0.1398
     13 C         139.6251  141.8017  161.7549 C.ar    1  UNL1        0.0512
     14 C         140.3303  142.9338  162.4411 C.ar    1  UNL1        0.0493
     15 N         141.7343  143.2895  162.0508 N.am    1  UNL1       -0.2841
     16 H         142.1929  142.7799  161.3443 H       1  UNL1        0.1548
     17 C         141.3574  138.7433  162.3544 C.3     1  UNL1        0.0723
     18 N         141.4912  139.3408  163.7237 N.3     1  UNL1       -0.2698
     19 C         140.5337  138.9491  164.8098 C.3     1  UNL1        0.0938
     20 C         140.6675  139.5467  166.1791 C.3     1  UNL1        0.1081
     21 N         141.7589  140.5361  166.4623 N.pl3   1  UNL1       -0.3040
     22 C         142.7164  140.9278  165.3761 C.3     1  UNL1        0.1081
     23 C         142.5826  140.3301  164.0068 C.3     1  UNL1        0.0938
     24 C         141.8928  141.1336  167.8315 C.ar    1  UNL1        0.0594
     25 C         142.8053  140.5010  168.8400 C.ar    1  UNL1        0.0154
     26 C         142.9391  141.0987  170.2094 C.ar    1  UNL1        0.0022
     27 C         142.1604  142.3289  170.5701 C.ar    1  UNL1        0.0123
     28 C         141.2479  142.9615  169.5616 C.ar    1  UNL1        0.0694
     29 CL        140.4692  144.1917  169.9224 Cl      1  UNL1       -0.0813
     30 C         141.1141  142.3639  168.1923 C.ar    1  UNL1        0.0815
     31 CL        140.2015  142.9965  167.1838 Cl      1  UNL1       -0.0801
@<TRIPOS>BOND
     1     5     6    2
     2     6     7    1
     3     7     8    1
     4     8     9    1
     5     9    10   ar
     6    10    11   ar
     7    11    12   ar
     8    12     4    1
     9     4     3    1
    10     3     2    1
    11     2     1    1
    12     1    17    1
    13    17    18    1
    14    18    19    1
    15    19    20    1
    16    20    21    1
    17    21    24    1
    18    24    25   ar
    19    25    26   ar
    20    26    27   ar
    21    27    28   ar
    22    28    29    1
    23    28    30   ar
    24    30    31    1
    25    21    22    1
    26    22    23    1
    27    12    13   ar
    28    13    14   ar
    29    14    15    1
    30    15     6   am
    31    14     9   ar
    32    23    18    1
    33    30    24   ar
    34    15    16    1
@<TRIPOS>MOLECULE
*****
 31 34 0 0 0
SMALL
GASTEIGER

@<TRIPOS>ATOM
      1 C         140.4513  139.3940  159.6754 C.3     1  UNL1        0.0212
      2 C         141.7038  139.2168  158.8693 C.3     1  UNL1        0.0488
      3 C         142.6398  138.0857  159.1767 C.3     1  UNL1        0.2054
      4 O         143.9551  138.3607  159.8435 O.3     1  UNL1       -0.4754
      5 O         144.0800  145.4681  163.0401 O.2     1  UNL1       -0.2748
      6 C         144.0940  143.9757  163.1904 C.2     1  UNL1        0.2264
      7 C         144.1638  143.3601  164.5564 C.3     1  UNL1        0.0901
      8 C         144.1778  141.8677  164.7067 C.3     1  UNL1        0.0372
      9 C         144.1221  140.9910  163.4909 C.ar    1  UNL1       -0.0080
     10 C         144.1362  139.4986  163.6412 C.ar    1  UNL1        0.0001
     11 C         144.0805  138.6218  162.4254 C.ar    1  UNL1        0.0367
     12 C         144.0107  139.2374  161.0593 C.ar    1  UNL1        0.1398
     13 C         143.9967  140.7298  160.9090 C.ar    1  UNL1        0.0512
     14 C         144.0524  141.6066  162.1249 C.ar    1  UNL1        0.0493
     15 N         144.0383  143.0990  161.9746 N.am    1  UNL1       -0.2841
     16 H         143.9926  143.5030  161.0780 H       1  UNL1        0.1548
     17 C         140.0758  138.3761  160.7112 C.3     1  UNL1        0.0723
     18 N         140.3129  138.6622  162.1644 N.3     1  UNL1       -0.2698
     19 C         140.4884  137.5303  163.1328 C.3     1  UNL1        0.0938
     20 C         140.7255  137.8164  164.5861 C.3     1  UNL1        0.1081
     21 N         140.7870  139.2346  165.0709 N.pl3   1  UNL1       -0.3040
     22 C         140.6114  140.3666  164.1025 C.3     1  UNL1        0.1081
     23 C         140.3743  140.0804  162.6492 C.3     1  UNL1        0.0938
     24 C         141.0240  139.5208  166.5241 C.ar    1  UNL1        0.0594
     25 C         142.4226  139.5420  167.0660 C.ar    1  UNL1        0.0154
     26 C         142.6596  139.8282  168.5193 C.ar    1  UNL1        0.0022
     27 C         141.4981  140.0931  169.4306 C.ar    1  UNL1        0.0123
     28 C         140.0996  140.0719  168.8888 C.ar    1  UNL1        0.0694
     29 CL        138.9381  140.3369  169.8002 Cl      1  UNL1       -0.0813
     30 C         139.8625  139.7858  167.4356 C.ar    1  UNL1        0.0815
     31 CL        138.4639  139.7646  166.8938 Cl      1  UNL1       -0.0801
@<TRIPOS>BOND
     1     5     6    2
     2     6     7    1
     3     7     8    1
     4     8     9    1
     5     9    10   ar
     6    10    11   ar
     7    11    12   ar
     8    12     4    1
     9     4     3    1
    10     3     2    1
    11     2     1    1
    12     1    17    1
    13    17    18    1
    14    18    19    1
    15    19    20    1
    16    20    21    1
    17    21    24    1
    18    24    25   ar
    19    25    26   ar
    20    26    27   ar
    21    27    28   ar
    22    28    29    1
    23    28    30   ar
    24    30    31    1
    25    21    22    1
    26    22    23    1
    27    12    13   ar
    28    13    14   ar
    29    14    15    1
    30    15     6   am
    31    14     9   ar
    32    23    18    1
    33    30    24   ar
    34    15    16    1
@<TRIPOS>MOLECULE
*****
 31 34 0 0 0
SMALL
GASTEIGER

@<TRIPOS>ATOM
      1 C         143.9991  138.3541  161.8530 C.3     1  UNL1        0.0212
      2 C         143.0605  137.7454  160.8538 C.3     1  UNL1        0.0488
      3 C         141.6361  138.2100  160.7829 C.3     1  UNL1        0.2054
      4 O         140.7126  137.9767  161.9417 O.3     1  UNL1       -0.4754
      5 O         138.9066  145.5584  162.0290 O.2     1  UNL1       -0.2748
      6 C         138.7533  144.1798  162.6001 C.2     1  UNL1        0.2264
      7 C         137.8448  143.9499  163.7713 C.3     1  UNL1        0.0901
      8 C         137.6915  142.5713  164.3423 C.3     1  UNL1        0.0372
      9 C         138.4468  141.4227  163.7422 C.ar    1  UNL1       -0.0080
     10 C         138.2935  140.0441  164.3132 C.ar    1  UNL1        0.0001
     11 C         139.0488  138.8955  163.7131 C.ar    1  UNL1        0.0367
     12 C         139.9573  139.1254  162.5419 C.ar    1  UNL1        0.1398
     13 C         140.1106  140.5039  161.9708 C.ar    1  UNL1        0.0512
     14 C         139.3553  141.6526  162.5710 C.ar    1  UNL1        0.0493
     15 N         139.5086  143.0312  162.0000 N.am    1  UNL1       -0.2841
     16 H         140.1049  143.1821  161.2313 H       1  UNL1        0.1548
     17 C         143.8982  139.8136  162.1846 C.3     1  UNL1        0.0723
     18 N         143.4895  140.2432  163.5624 N.3     1  UNL1       -0.2698
     19 C         143.4396  139.2404  164.6768 C.3     1  UNL1        0.0938
     20 C         143.0309  139.6700  166.0546 C.3     1  UNL1        0.1081
     21 N         142.6721  141.1024  166.3181 N.pl3   1  UNL1       -0.3040
     22 C         142.7220  142.1053  165.2037 C.3     1  UNL1        0.1081
     23 C         143.1307  141.6756  163.8258 C.3     1  UNL1        0.0938
     24 C         142.2634  141.5320  167.6958 C.ar    1  UNL1        0.0594
     25 C         143.2159  142.3137  168.5512 C.ar    1  UNL1        0.0154
     26 C         142.8072  142.7433  169.9291 C.ar    1  UNL1        0.0022
     27 C         141.4459  142.3912  170.4515 C.ar    1  UNL1        0.0123
     28 C         140.4934  141.6095  169.5962 C.ar    1  UNL1        0.0694
     29 CL        139.1321  141.2575  170.1186 Cl      1  UNL1       -0.0813
     30 C         140.9020  141.1800  168.2184 C.ar    1  UNL1        0.0815
     31 CL        139.9495  140.3983  167.3630 Cl      1  UNL1       -0.0801
@<TRIPOS>BOND
     1     5     6    2
     2     6     7    1
     3     7     8    1
     4     8     9    1
     5     9    10   ar
     6    10    11   ar
     7    11    12   ar
     8    12     4    1
     9     4     3    1
    10     3     2    1
    11     2     1    1
    12     1    17    1
    13    17    18    1
    14    18    19    1
    15    19    20    1
    16    20    21    1
    17    21    24    1
    18    24    25   ar
    19    25    26   ar
    20    26    27   ar
    21    27    28   ar
    22    28    29    1
    23    28    30   ar
    24    30    31    1
    25    21    22    1
    26    22    23    1
    27    12    13   ar
    28    13    14   ar
    29    14    15    1
    30    15     6   am
    31    14     9   ar
    32    23    18    1
    33    30    24   ar
    34    15    16    1
@<TRIPOS>MOLECULE
*****
 31 34 0 0 0
SMALL
GASTEIGER

@<TRIPOS>ATOM
      1 C         143.5389  140.2300  161.3770 C.3     1  UNL1        0.0212
      2 C         144.3447  141.3275  160.7476 C.3     1  UNL1        0.0488
      3 C         144.4608  142.6584  161.4296 C.3     1  UNL1        0.2054
      4 O         143.4843  143.7518  161.1117 O.3     1  UNL1       -0.4754
      5 O         138.1141  145.6001  166.4497 O.2     1  UNL1       -0.2748
      6 C         138.4950  144.9020  165.1779 C.2     1  UNL1        0.2264
      7 C         137.4668  144.1219  164.4135 C.3     1  UNL1        0.0901
      8 C         137.8478  143.4238  163.1417 C.3     1  UNL1        0.0372
      9 C         139.2569  143.5058  162.6342 C.ar    1  UNL1       -0.0080
     10 C         139.6378  142.8077  161.3624 C.ar    1  UNL1        0.0001
     11 C         141.0469  142.8897  160.8549 C.ar    1  UNL1        0.0367
     12 C         142.0752  143.6698  161.6192 C.ar    1  UNL1        0.1398
     13 C         141.6943  144.3679  162.8911 C.ar    1  UNL1        0.0512
     14 C         140.2851  144.2859  163.3985 C.ar    1  UNL1        0.0493
     15 N         139.9041  144.9840  164.6704 N.am    1  UNL1       -0.2841
     16 H         140.5790  145.4959  165.1720 H       1  UNL1        0.1548
     17 C         144.0793  139.4889  162.5640 C.3     1  UNL1        0.0723
     18 N         143.5127  139.7442  163.9292 N.3     1  UNL1       -0.2698
     19 C         142.6974  140.9772  164.1843 C.3     1  UNL1        0.0938
     20 C         142.1308  141.2325  165.5494 C.3     1  UNL1        0.1081
     21 N         142.3795  140.2548  166.6596 N.pl3   1  UNL1       -0.3040
     22 C         143.1948  139.0218  166.4045 C.3     1  UNL1        0.1081
     23 C         143.7614  138.7666  165.0392 C.3     1  UNL1        0.0938
     24 C         141.8129  140.5101  168.0248 C.ar    1  UNL1        0.0594
     25 C         142.6866  141.0733  169.1062 C.ar    1  UNL1        0.0154
     26 C         142.1199  141.3286  170.4714 C.ar    1  UNL1        0.0022
     27 C         140.6796  141.0207  170.7552 C.ar    1  UNL1        0.0123
     28 C         139.8059  140.4575  169.6738 C.ar    1  UNL1        0.0694
     29 CL        138.3655  140.1497  169.9576 Cl      1  UNL1       -0.0813
     30 C         140.3725  140.2022  168.3086 C.ar    1  UNL1        0.0815
     31 CL        139.4987  139.6390  167.2272 Cl      1  UNL1       -0.0801
@<TRIPOS>BOND
     1     5     6    2
     2     6     7    1
     3     7     8    1
     4     8     9    1
     5     9    10   ar
     6    10    11   ar
     7    11    12   ar
     8    12     4    1
     9     4     3    1
    10     3     2    1
    11     2     1    1
    12     1    17    1
    13    17    18    1
    14    18    19    1
    15    19    20    1
    16    20    21    1
    17    21    24    1
    18    24    25   ar
    19    25    26   ar
    20    26    27   ar
    21    27    28   ar
    22    28    29    1
    23    28    30   ar
    24    30    31    1
    25    21    22    1
    26    22    23    1
    27    12    13   ar
    28    13    14   ar
    29    14    15    1
    30    15     6   am
    31    14     9   ar
    32    23    18    1
    33    30    24   ar
    34    15    16    1
@<TRIPOS>MOLECULE
*****
 31 34 0 0 0
SMALL
GASTEIGER

@<TRIPOS>ATOM
      1 C         139.9748  141.2318  170.2209 C.3     1  UNL1        0.0212
      2 C         139.0091  140.3060  169.5425 C.3     1  UNL1        0.0488
      3 C         139.3563  139.7023  168.2140 C.3     1  UNL1        0.2054
      4 O         138.2818  139.0913  167.3641 O.3     1  UNL1       -0.4754
      5 O         137.9850  142.8833  160.5609 O.2     1  UNL1       -0.2748
      6 C         138.2185  141.6196  161.3347 C.2     1  UNL1        0.2264
      7 C         138.5865  140.3564  160.6145 C.3     1  UNL1        0.0901
      8 C         138.8200  139.0927  161.3883 C.3     1  UNL1        0.0372
      9 C         138.6854  139.0924  162.8822 C.ar    1  UNL1       -0.0080
     10 C         138.9189  137.8287  163.6560 C.ar    1  UNL1        0.0001
     11 C         138.7844  137.8284  165.1499 C.ar    1  UNL1        0.0367
     12 C         138.4163  139.0917  165.8701 C.ar    1  UNL1        0.1398
     13 C         138.1829  140.3553  165.0964 C.ar    1  UNL1        0.0512
     14 C         138.3174  140.3556  163.6024 C.ar    1  UNL1        0.0493
     15 N         138.0839  141.6193  162.8286 N.am    1  UNL1       -0.2841
     16 H         137.8424  142.4484  163.3013 H       1  UNL1        0.1548
     17 C         140.3298  142.5430  169.5845 C.3     1  UNL1        0.0723
     18 N         141.0015  142.5683  168.2436 N.3     1  UNL1       -0.2698
     19 C         142.4483  142.1912  168.1223 C.3     1  UNL1        0.0938
     20 C         143.1200  142.2166  166.7813 C.3     1  UNL1        0.1081
     21 N         142.3450  142.6190  165.5617 N.pl3   1  UNL1       -0.3040
     22 C         140.8982  142.9961  165.6830 C.3     1  UNL1        0.1081
     23 C         140.2265  142.9707  167.0240 C.3     1  UNL1        0.0938
     24 C         143.0167  142.6443  164.2208 C.ar    1  UNL1        0.0594
     25 C         143.7913  143.8554  163.7927 C.ar    1  UNL1        0.0154
     26 C         144.4631  143.8807  162.4517 C.ar    1  UNL1        0.0022
     27 C         144.3602  142.6949  161.5389 C.ar    1  UNL1        0.0123
     28 C         143.5857  141.4838  161.9670 C.ar    1  UNL1        0.0694
     29 CL        143.4828  140.2980  161.0541 Cl      1  UNL1       -0.0813
     30 C         142.9139  141.4585  163.3079 C.ar    1  UNL1        0.0815
     31 CL        142.1394  140.2474  163.7359 Cl      1  UNL1       -0.0801
@<TRIPOS>BOND
     1     5     6    2
     2     6     7    1
     3     7     8    1
     4     8     9    1
     5     9    10   ar
     6    10    11   ar
     7    11    12   ar
     8    12     4    1
     9     4     3    1
    10     3     2    1
    11     2     1    1
    12     1    17    1
    13    17    18    1
    14    18    19    1
    15    19    20    1
    16    20    21    1
    17    21    24    1
    18    24    25   ar
    19    25    26   ar
    20    26    27   ar
    21    27    28   ar
    22    28    29    1
    23    28    30   ar
    24    30    31    1
    25    21    22    1
    26    22    23    1
    27    12    13   ar
    28    13    14   ar
    29    14    15    1
    30    15     6   am
    31    14     9   ar
    32    23    18    1
    33    30    24   ar
    34    15    16    1
@<TRIPOS>MOLECULE
*****
 31 34 0 0 0
SMALL
GASTEIGER

@<TRIPOS>ATOM
      1 C         143.1387  143.7590  161.1156 C.3     1  UNL1        0.0212
      2 C         142.0064  144.5207  161.7382 C.3     1  UNL1        0.0488
      3 C         140.9063  145.0661  160.8768 C.3     1  UNL1        0.2054
      4 O         139.4774  144.7232  161.1784 O.3     1  UNL1       -0.4754
      5 O         138.7882  137.2572  163.3079 O.2     1  UNL1       -0.2748
      6 C         138.6978  138.7169  163.6415 C.2     1  UNL1        0.2264
      7 C         138.2873  139.1475  165.0184 C.3     1  UNL1        0.0901
      8 C         138.1969  140.6072  165.3520 C.3     1  UNL1        0.0372
      9 C         138.5170  141.6362  164.3086 C.ar    1  UNL1       -0.0080
     10 C         138.4267  143.0958  164.6422 C.ar    1  UNL1        0.0001
     11 C         138.7468  144.1248  163.5988 C.ar    1  UNL1        0.0367
     12 C         139.1573  143.6942  162.2218 C.ar    1  UNL1        0.1398
     13 C         139.2477  142.2345  161.8882 C.ar    1  UNL1        0.0512
     14 C         138.9276  141.2055  162.9317 C.ar    1  UNL1        0.0493
     15 N         139.0180  139.7459  162.5981 N.am    1  UNL1       -0.2841
     16 H         139.2874  139.4632  161.6944 H       1  UNL1        0.1548
     17 C         144.0595  142.9465  161.9772 C.3     1  UNL1        0.0723
     18 N         143.5899  142.4427  163.3097 N.3     1  UNL1       -0.2698
     19 C         144.1145  143.0600  164.5721 C.3     1  UNL1        0.0938
     20 C         143.6449  142.5562  165.9047 C.3     1  UNL1        0.1081
     21 N         142.6508  141.4351  165.9748 N.pl3   1  UNL1       -0.3040
     22 C         142.1262  140.8178  164.7123 C.3     1  UNL1        0.1081
     23 C         142.5958  141.3217  163.3797 C.3     1  UNL1        0.0938
     24 C         142.1812  140.9313  167.3073 C.ar    1  UNL1        0.0594
     25 C         142.8019  139.7042  167.9063 C.ar    1  UNL1        0.0154
     26 C         142.3323  139.2004  169.2389 C.ar    1  UNL1        0.0022
     27 C         141.2420  139.9238  169.9724 C.ar    1  UNL1        0.0123
     28 C         140.6214  141.1509  169.3734 C.ar    1  UNL1        0.0694
     29 CL        139.5311  141.8743  170.1069 Cl      1  UNL1       -0.0813
     30 C         141.0909  141.6547  168.0409 C.ar    1  UNL1        0.0815
     31 CL        140.4703  142.8819  167.4419 Cl      1  UNL1       -0.0801
@<TRIPOS>BOND
     1     5     6    2
     2     6     7    1
     3     7     8    1
     4     8     9    1
     5     9    10   ar
     6    10    11   ar
     7    11    12   ar
     8    12     4    1
     9     4     3    1
    10     3     2    1
    11     2     1    1
    12     1    17    1
    13    17    18    1
    14    18    19    1
    15    19    20    1
    16    20    21    1
    17    21    24    1
    18    24    25   ar
    19    25    26   ar
    20    26    27   ar
    21    27    28   ar
    22    28    29    1
    23    28    30   ar
    24    30    31    1
    25    21    22    1
    26    22    23    1
    27    12    13   ar
    28    13    14   ar
    29    14    15    1
    30    15     6   am
    31    14     9   ar
    32    23    18    1
    33    30    24   ar
    34    15    16    1
@<TRIPOS>MOLECULE
*****
 31 34 0 0 0
SMALL
GASTEIGER

@<TRIPOS>ATOM
      1 C         140.9898  143.5379  160.9676 C.3     1  UNL1        0.0212
      2 C         140.2584  143.3143  159.6772 C.3     1  UNL1        0.0488
      3 C         138.7945  142.9879  159.6918 C.3     1  UNL1        0.2054
      4 O         138.0887  142.7651  160.9966 O.3     1  UNL1       -0.4754
      5 O         137.8595  138.7680  167.6840 O.2     1  UNL1       -0.2748
      6 C         138.1461  138.8230  166.2126 C.2     1  UNL1        0.2264
      7 C         138.6429  137.6008  165.4991 C.3     1  UNL1        0.0901
      8 C         138.9295  137.6558  164.0277 C.3     1  UNL1        0.0372
      9 C         138.7193  138.9331  163.2699 C.ar    1  UNL1       -0.0080
     10 C         139.0059  138.9881  161.7986 C.ar    1  UNL1        0.0001
     11 C         138.7957  140.2654  161.0408 C.ar    1  UNL1        0.0367
     12 C         138.2989  141.4878  161.7544 C.ar    1  UNL1        0.1398
     13 C         138.0123  141.4327  163.2257 C.ar    1  UNL1        0.0512
     14 C         138.2225  140.1554  163.9835 C.ar    1  UNL1        0.0493
     15 N         137.9359  140.1003  165.4548 N.am    1  UNL1       -0.2841
     16 H         137.6098  140.9026  165.9232 H       1  UNL1        0.1548
     17 C         141.8289  142.4414  161.5539 C.3     1  UNL1        0.0723
     18 N         141.6545  142.0508  162.9916 N.3     1  UNL1       -0.2698
     19 C         141.9310  140.6415  163.4247 C.3     1  UNL1        0.0938
     20 C         141.7566  140.2509  164.8624 C.3     1  UNL1        0.1081
     21 N         141.3059  141.2696  165.8670 N.pl3   1  UNL1       -0.3040
     22 C         141.0294  142.6788  165.4339 C.3     1  UNL1        0.1081
     23 C         141.2038  143.0694  163.9961 C.3     1  UNL1        0.0938
     24 C         141.1315  140.8789  167.3047 C.ar    1  UNL1        0.0594
     25 C         140.0613  141.5257  168.1332 C.ar    1  UNL1        0.0154
     26 C         139.8870  141.1350  169.5710 C.ar    1  UNL1        0.0022
     27 C         140.7829  140.0976  170.1802 C.ar    1  UNL1        0.0123
     28 C         141.8531  139.4509  169.3517 C.ar    1  UNL1        0.0694
     29 CL        142.7490  138.4135  169.9609 Cl      1  UNL1       -0.0813
     30 C         142.0274  139.8415  167.9140 C.ar    1  UNL1        0.0815
     31 CL        143.0976  139.1947  167.0855 Cl      1  UNL1       -0.0801
@<TRIPOS>BOND
     1     5     6    2
     2     6     7    1
     3     7     8    1
     4     8     9    1
     5     9    10   ar
     6    10    11   ar
     7    11    12   ar
     8    12     4    1
     9     4     3    1
    10     3     2    1
    11     2     1    1
    12     1    17    1
    13    17    18    1
    14    18    19    1
    15    19    20    1
    16    20    21    1
    17    21    24    1
    18    24    25   ar
    19    25    26   ar
    20    26    27   ar
    21    27    28   ar
    22    28    29    1
    23    28    30   ar
    24    30    31    1
    25    21    22    1
    26    22    23    1
    27    12    13   ar
    28    13    14   ar
    29    14    15    1
    30    15     6   am
    31    14     9   ar
    32    23    18    1
    33    30    24   ar
    34    15    16    1
