@<TRIPOS>MOLECULE
*****
 26 29 0 0 0
SMALL
GASTEIGER

@<TRIPOS>ATOM
      1 N         141.0168  142.9836  162.5437 N.ar    1  UNL1       -0.2514
      2 C         141.2845  142.1294  163.7474 C.ar    1  UNL1        0.0961
      3 C         140.2585  142.4627  164.7897 C.ar    1  UNL1        0.0385
      4 C         139.3568  143.5228  164.2302 C.ar    1  UNL1        0.1733
      5 N         139.8255  143.8448  162.8421 N.ar    1  UNL1       -0.1653
      6 C         140.1528  141.8443  166.1522 C.2     1  UNL1       -0.0132
      7 C         139.4695  140.5202  166.3240 C.2     1  UNL1       -0.0038
      8 C         139.3638  139.9018  167.6866 C.2     1  UNL1        0.0009
      9 C         139.9416  140.6077  168.8773 C.2     1  UNL1        0.0154
     10 C         139.9897  140.2465  170.3324 C.2     1  UNL1        0.0218
     11 C         140.7028  141.3475  171.0599 C.2     1  UNL1        0.0985
     12 N         141.0955  142.3891  170.0544 N.2     1  UNL1       -0.2478
     13 C         140.6250  141.9319  168.7055 C.2     1  UNL1        0.0634
     14 C         140.7306  142.5502  167.3430 C.3     1  UNL1        0.0721
     15 N         143.0453  144.4321  157.8888 N.3     1  UNL1       -0.3221
     16 C         142.7351  143.6433  159.1264 C.3     1  UNL1        0.0528
     17 C         143.2888  142.2931  159.4735 C.3     1  UNL1        0.0175
     18 C         142.7126  141.8817  160.7958 C.3     1  UNL1        0.0258
     19 C         141.8026  142.9776  161.2661 C.3     1  UNL1        0.1066
     20 C         141.8165  144.0662  160.2344 C.3     1  UNL1        0.0398
     21 H         143.6989  143.9083  157.3068 H       1  UNL1        0.1188
     22 H         143.4632  145.3249  158.1506 H       1  UNL1        0.1188
     23 C         138.1911  144.1508  164.9350 C.3     1  UNL1        0.4365
     24 F         137.0254  144.7787  165.6399 F       1  UNL1       -0.1643
     25 F         139.0215  145.3655  165.2263 F       1  UNL1       -0.1643
     26 F         137.3606  142.9361  164.6438 F       1  UNL1       -0.1643
@<TRIPOS>BOND
     1    16    15    1
     2    16    17    1
     3    17    18    1
     4    18    19    1
     5    19     1    1
     6     1     2   ar
     7     2     3   ar
     8     3     6    1
     9     6     7    2
    10     7     8    1
    11     8     9    2
    12     9    10    1
    13    10    11    2
    14    11    12    1
    15    12    13    2
    16    13    14    1
    17     3     4   ar
    18     4    23    1
    19    23    24    1
    20    23    25    1
    21    23    26    1
    22     4     5   ar
    23    19    20    1
    24    20    16    1
    25     5     1   ar
    26    14     6    1
    27    13     9    1
    28    15    21    1
    29    15    22    1
@<TRIPOS>MOLECULE
*****
 26 29 0 0 0
SMALL
GASTEIGER

@<TRIPOS>ATOM
      1 N         140.6881  141.0617  167.4997 N.ar    1  UNL1       -0.2514
      2 C         140.4889  141.4209  166.0571 C.ar    1  UNL1        0.0961
      3 C         139.5935  140.3868  165.4413 C.ar    1  UNL1        0.0385
      4 C         139.2394  139.3886  166.5034 C.ar    1  UNL1        0.1733
      5 N         139.9159  139.8057  167.7756 N.ar    1  UNL1       -0.1653
      6 C         139.1332  140.3564  164.0140 C.2     1  UNL1       -0.0132
      7 C         137.8565  141.0398  163.6229 C.2     1  UNL1       -0.0038
      8 C         137.3962  141.0094  162.1956 C.2     1  UNL1        0.0009
      9 C         138.2126  140.2955  161.1594 C.2     1  UNL1        0.0154
     10 C         138.0136  140.0981  159.6858 C.2     1  UNL1        0.0218
     11 C         139.1673  139.2926  159.1662 C.2     1  UNL1        0.0985
     12 N         140.0794  138.9922  160.3185 N.2     1  UNL1       -0.2478
     13 C         139.4893  139.6121  161.5504 C.2     1  UNL1        0.0634
     14 C         139.9496  139.6425  162.9777 C.3     1  UNL1        0.0721
     15 N         144.7977  142.8627  170.2833 N.3     1  UNL1       -0.3221
     16 C         143.4034  142.6526  169.7717 C.3     1  UNL1        0.0528
     17 C         142.1685  143.3450  170.2674 C.3     1  UNL1        0.0175
     18 C         141.0011  142.8334  169.4766 C.3     1  UNL1        0.0258
     19 C         141.5144  141.8246  168.4922 C.3     1  UNL1        0.1066
     20 C         142.9990  141.7129  168.6746 C.3     1  UNL1        0.0398
     21 H         144.7847  143.5570  171.0304 H       1  UNL1        0.1188
     22 H         145.3927  143.1923  169.5231 H       1  UNL1        0.1188
     23 C         138.3627  138.1846  166.3247 C.3     1  UNL1        0.4365
     24 F         137.4860  136.9807  166.1460 F       1  UNL1       -0.1643
     25 F         137.2857  138.8494  167.1298 F       1  UNL1       -0.1643
     26 F         139.4397  137.5199  165.5197 F       1  UNL1       -0.1643
@<TRIPOS>BOND
     1    16    15    1
     2    16    17    1
     3    17    18    1
     4    18    19    1
     5    19     1    1
     6     1     2   ar
     7     2     3   ar
     8     3     6    1
     9     6     7    2
    10     7     8    1
    11     8     9    2
    12     9    10    1
    13    10    11    2
    14    11    12    1
    15    12    13    2
    16    13    14    1
    17     3     4   ar
    18     4    23    1
    19    23    24    1
    20    23    25    1
    21    23    26    1
    22     4     5   ar
    23    19    20    1
    24    20    16    1
    25     5     1   ar
    26    14     6    1
    27    13     9    1
    28    15    21    1
    29    15    22    1
@<TRIPOS>MOLECULE
*****
 26 29 0 0 0
SMALL
GASTEIGER

@<TRIPOS>ATOM
      1 N         138.9672  140.1217  162.9946 N.ar    1  UNL1       -0.2514
      2 C         140.0190  140.5528  163.9733 C.ar    1  UNL1        0.0961
      3 C         139.8198  139.7751  165.2404 C.ar    1  UNL1        0.0385
      4 C         138.6448  138.8633  165.0448 C.ar    1  UNL1        0.1733
      5 N         138.1179  139.0776  163.6567 N.ar    1  UNL1       -0.1653
      6 C         140.6498  139.8891  166.4846 C.2     1  UNL1       -0.0132
      7 C         142.0191  139.2788  166.5313 C.2     1  UNL1       -0.0038
      8 C         142.8492  139.3928  167.7756 C.2     1  UNL1        0.0009
      9 C         142.3097  140.1172  168.9731 C.2     1  UNL1        0.0154
     10 C         142.8924  140.3890  170.3283 C.2     1  UNL1        0.0218
     11 C         141.8831  141.1673  171.1192 C.2     1  UNL1        0.0985
     12 N         140.6766  141.3766  170.2528 N.2     1  UNL1       -0.2478
     13 C         140.9403  140.7276  168.9264 C.2     1  UNL1        0.0634
     14 C         140.1103  140.6135  167.6822 C.3     1  UNL1        0.0721
     15 N         137.7463  140.4394  157.8673 N.3     1  UNL1       -0.3221
     16 C         138.2339  140.7894  159.2420 C.3     1  UNL1        0.0528
     17 C         138.8263  142.1026  159.6597 C.3     1  UNL1        0.0175
     18 C         139.1731  142.0124  161.1163 C.3     1  UNL1        0.0258
     19 C         138.7950  140.6433  161.5988 C.3     1  UNL1        0.1066
     20 C         138.2146  139.8875  160.4405 C.3     1  UNL1        0.0398
     21 H         137.8782  141.2378  157.2463 H       1  UNL1        0.1188
     22 H         136.7555  140.2007  157.9085 H       1  UNL1        0.1188
     23 C         138.0936  137.9055  166.0590 C.3     1  UNL1        0.4365
     24 F         137.5424  136.9477  167.0733 F       1  UNL1       -0.1643
     25 F         137.3516  139.0303  166.7179 F       1  UNL1       -0.1643
     26 F         138.8356  136.7807  165.4001 F       1  UNL1       -0.1643
@<TRIPOS>BOND
     1    16    15    1
     2    16    17    1
     3    17    18    1
     4    18    19    1
     5    19     1    1
     6     1     2   ar
     7     2     3   ar
     8     3     6    1
     9     6     7    2
    10     7     8    1
    11     8     9    2
    12     9    10    1
    13    10    11    2
    14    11    12    1
    15    12    13    2
    16    13    14    1
    17     3     4   ar
    18     4    23    1
    19    23    24    1
    20    23    25    1
    21    23    26    1
    22     4     5   ar
    23    19    20    1
    24    20    16    1
    25     5     1   ar
    26    14     6    1
    27    13     9    1
    28    15    21    1
    29    15    22    1
@<TRIPOS>MOLECULE
*****
 26 29 0 0 0
SMALL
GASTEIGER

@<TRIPOS>ATOM
      1 N         141.0450  142.5898  166.6133 N.ar    1  UNL1       -0.2514
      2 C         141.5582  143.3604  165.4331 C.ar    1  UNL1        0.0961
      3 C         140.5398  143.2611  164.3363 C.ar    1  UNL1        0.0385
      4 C         139.3972  142.4292  164.8386 C.ar    1  UNL1        0.1733
      5 N         139.7094  142.0143  166.2459 N.ar    1  UNL1       -0.1653
      6 C         140.6455  143.8843  162.9760 C.2     1  UNL1       -0.0132
      7 C         139.8954  145.1464  162.6688 C.2     1  UNL1       -0.0038
      8 C         140.0012  145.7696  161.3085 C.2     1  UNL1        0.0009
      9 C         140.8571  145.1307  160.2553 C.2     1  UNL1        0.0154
     10 C         141.1533  145.5120  158.8352 C.2     1  UNL1        0.0218
     11 C         142.0865  144.4856  158.2647 C.2     1  UNL1        0.0985
     12 N         142.3670  143.4698  159.3322 N.2     1  UNL1       -0.2478
     13 C         141.6072  143.8685  160.5625 C.2     1  UNL1        0.0634
     14 C         141.5014  143.2454  161.9228 C.3     1  UNL1        0.0721
     15 N         141.9581  142.1665  171.7968 N.3     1  UNL1       -0.3221
     16 C         142.1644  142.2294  170.3123 C.3     1  UNL1        0.0528
     17 C         143.4782  142.1080  169.5988 C.3     1  UNL1        0.0175
     18 C         143.2188  142.2283  168.1262 C.3     1  UNL1        0.0258
     19 C         141.7446  142.4240  167.9298 C.3     1  UNL1        0.1066
     20 C         141.0930  142.4246  169.2808 C.3     1  UNL1        0.0398
     21 H         142.8564  142.0268  172.2593 H       1  UNL1        0.1188
     22 H         141.3358  141.3900  172.0210 H       1  UNL1        0.1188
     23 C         138.1596  142.0744  164.0688 C.3     1  UNL1        0.4365
     24 F         136.9221  141.7197  163.2990 F       1  UNL1       -0.1643
     25 F         137.4143  143.1787  164.7581 F       1  UNL1       -0.1643
     26 F         138.9049  140.9701  163.3796 F       1  UNL1       -0.1643
@<TRIPOS>BOND
     1    16    15    1
     2    16    17    1
     3    17    18    1
     4    18    19    1
     5    19     1    1
     6     1     2   ar
     7     2     3   ar
     8     3     6    1
     9     6     7    2
    10     7     8    1
    11     8     9    2
    12     9    10    1
    13    10    11    2
    14    11    12    1
    15    12    13    2
    16    13    14    1
    17     3     4   ar
    18     4    23    1
    19    23    24    1
    20    23    25    1
    21    23    26    1
    22     4     5   ar
    23    19    20    1
    24    20    16    1
    25     5     1   ar
    26    14     6    1
    27    13     9    1
    28    15    21    1
    29    15    22    1
@<TRIPOS>MOLECULE
*****
 26 29 0 0 0
SMALL
GASTEIGER

@<TRIPOS>ATOM
      1 N         141.1459  142.5681  166.7910 N.ar    1  UNL1       -0.2514
      2 C         140.4150  143.1762  165.6308 C.ar    1  UNL1        0.0961
      3 C         141.3970  143.3675  164.5132 C.ar    1  UNL1        0.0385
      4 C         142.7348  142.8777  164.9826 C.ar    1  UNL1        0.1733
      5 N         142.5796  142.3836  166.3904 N.ar    1  UNL1       -0.1653
      6 C         141.0943  143.9470  163.1631 C.2     1  UNL1       -0.0132
      7 C         140.5431  145.3374  163.0501 C.2     1  UNL1       -0.0038
      8 C         140.2404  145.9169  161.7000 C.2     1  UNL1        0.0009
      9 C         140.4889  145.1057  160.4630 C.2     1  UNL1        0.0154
     10 C         140.2887  145.4082  159.0075 C.2     1  UNL1        0.0218
     11 C         140.7162  144.2047  158.2209 C.2     1  UNL1        0.0985
     12 N         141.1806  143.1583  159.1903 N.2     1  UNL1       -0.2478
     13 C         141.0400  143.7153  160.5760 C.2     1  UNL1        0.0634
     14 C         141.3427  143.1359  161.9260 C.3     1  UNL1        0.0721
     15 N         138.8537  139.8502  170.6948 N.3     1  UNL1       -0.3221
     16 C         139.4944  140.9586  169.9131 C.3     1  UNL1        0.0528
     17 C         139.7615  142.3483  170.4105 C.3     1  UNL1        0.0175
     18 C         140.4127  143.1204  169.3014 C.3     1  UNL1        0.0258
     19 C         140.5480  142.2078  168.1186 C.3     1  UNL1        0.1066
     20 C         139.9805  140.8718  168.4967 C.3     1  UNL1        0.0398
     21 H         138.6217  140.1840  171.6303 H       1  UNL1        0.1188
     22 H         139.5011  139.0652  170.7648 H       1  UNL1        0.1188
     23 C         144.0048  142.8813  164.1844 C.3     1  UNL1        0.4365
     24 F         145.2748  142.8849  163.3862 F       1  UNL1       -0.1643
     25 F         143.8374  141.4159  163.9115 F       1  UNL1       -0.1643
     26 F         144.1721  144.3467  164.4573 F       1  UNL1       -0.1643
@<TRIPOS>BOND
     1    16    15    1
     2    16    17    1
     3    17    18    1
     4    18    19    1
     5    19     1    1
     6     1     2   ar
     7     2     3   ar
     8     3     6    1
     9     6     7    2
    10     7     8    1
    11     8     9    2
    12     9    10    1
    13    10    11    2
    14    11    12    1
    15    12    13    2
    16    13    14    1
    17     3     4   ar
    18     4    23    1
    19    23    24    1
    20    23    25    1
    21    23    26    1
    22     4     5   ar
    23    19    20    1
    24    20    16    1
    25     5     1   ar
    26    14     6    1
    27    13     9    1
    28    15    21    1
    29    15    22    1
@<TRIPOS>MOLECULE
*****
 26 29 0 0 0
SMALL
GASTEIGER

@<TRIPOS>ATOM
      1 N         140.0538  138.9328  162.3973 N.ar    1  UNL1       -0.2514
      2 C         140.8226  139.8428  163.3088 C.ar    1  UNL1        0.0961
      3 C         140.2416  139.7181  164.6861 C.ar    1  UNL1        0.0385
      4 C         139.1137  138.7310  164.6258 C.ar    1  UNL1        0.1733
      5 N         138.9977  138.2457  163.2112 N.ar    1  UNL1       -0.1653
      6 C         140.7068  140.4517  165.9090 C.2     1  UNL1       -0.0132
      7 C         140.2444  141.8558  166.1626 C.2     1  UNL1       -0.0038
      8 C         140.7097  142.5894  167.3855 C.2     1  UNL1        0.0009
      9 C         141.6373  141.9187  168.3548 C.2     1  UNL1        0.0154
     10 C         142.2592  142.3871  169.6369 C.2     1  UNL1        0.0218
     11 C         143.1060  141.2724  170.1757 C.2     1  UNL1        0.0985
     12 N         143.0075  140.1150  169.2266 N.2     1  UNL1       -0.2478
     13 C         142.0997  140.5145  168.1012 C.2     1  UNL1        0.0634
     14 C         141.6345  139.7809  166.8783 C.3     1  UNL1        0.0721
     15 N         139.2733  138.4501  157.1974 N.3     1  UNL1       -0.3221
     16 C         139.9396  138.5214  158.5394 C.3     1  UNL1        0.0528
     17 C         141.4098  138.3818  158.8024 C.3     1  UNL1        0.0175
     18 C         141.6315  138.5189  160.2796 C.3     1  UNL1        0.0258
     19 C         140.2983  138.7433  160.9296 C.3     1  UNL1        0.1066
     20 C         139.2528  138.7448  159.8541 C.3     1  UNL1        0.0398
     21 H         139.9769  138.2901  156.4765 H       1  UNL1        0.1188
     22 H         138.7892  139.3284  157.0111 H       1  UNL1        0.1188
     23 C         138.2530  138.3042  165.7777 C.3     1  UNL1        0.4365
     24 F         137.3923  137.8774  166.9297 F       1  UNL1       -0.1643
     25 F         137.6683  139.6835  165.8519 F       1  UNL1       -0.1643
     26 F         138.8377  136.9249  165.7036 F       1  UNL1       -0.1643
@<TRIPOS>BOND
     1    16    15    1
     2    16    17    1
     3    17    18    1
     4    18    19    1
     5    19     1    1
     6     1     2   ar
     7     2     3   ar
     8     3     6    1
     9     6     7    2
    10     7     8    1
    11     8     9    2
    12     9    10    1
    13    10    11    2
    14    11    12    1
    15    12    13    2
    16    13    14    1
    17     3     4   ar
    18     4    23    1
    19    23    24    1
    20    23    25    1
    21    23    26    1
    22     4     5   ar
    23    19    20    1
    24    20    16    1
    25     5     1   ar
    26    14     6    1
    27    13     9    1
    28    15    21    1
    29    15    22    1
@<TRIPOS>MOLECULE
*****
 26 29 0 0 0
SMALL
GASTEIGER

@<TRIPOS>ATOM
      1 N         140.8643  141.0371  167.4176 N.ar    1  UNL1       -0.2514
      2 C         141.0133  142.2561  166.5564 C.ar    1  UNL1        0.0961
      3 C         140.2829  142.0070  165.2701 C.ar    1  UNL1        0.0385
      4 C         139.6825  140.6340  165.3364 C.ar    1  UNL1        0.1733
      5 N         140.0418  140.0346  166.6637 N.ar    1  UNL1       -0.1653
      6 C         140.1723  142.9631  164.1195 C.2     1  UNL1       -0.0132
      7 C         139.0848  143.9960  164.1045 C.2     1  UNL1       -0.0038
      8 C         138.9743  144.9521  162.9539 C.2     1  UNL1        0.0009
      9 C         139.9513  144.8751  161.8184 C.2     1  UNL1        0.0154
     10 C         140.0910  145.6771  160.5585 C.2     1  UNL1        0.0218
     11 C         141.2650  145.1397  159.7949 C.2     1  UNL1        0.0985
     12 N         141.8508  144.0057  160.5828 N.2     1  UNL1       -0.2478
     13 C         141.0389  143.8422  161.8335 C.2     1  UNL1        0.0634
     14 C         141.1494  142.8862  162.9840 C.3     1  UNL1        0.0721
     15 N         143.9446  139.4542  171.4035 N.3     1  UNL1       -0.3221
     16 C         142.8530  140.1255  170.6238 C.3     1  UNL1        0.0528
     17 C         141.7846  141.0141  171.1883 C.3     1  UNL1        0.0175
     18 C         140.9096  141.4638  170.0560 C.3     1  UNL1        0.0258
     19 C         141.4373  140.8530  168.7916 C.3     1  UNL1        0.1066
     20 C         142.6383  140.0260  169.1425 C.3     1  UNL1        0.0398
     21 H         143.8538  139.6936  172.3909 H       1  UNL1        0.1188
     22 H         144.8516  139.7694  171.0593 H       1  UNL1        0.1188
     23 C         138.8661  139.9760  164.2638 C.3     1  UNL1        0.4365
     24 F         138.0497  139.3180  163.1913 F       1  UNL1       -0.1643
     25 F         137.6444  140.6969  164.7515 F       1  UNL1       -0.1643
     26 F         140.0877  139.2551  163.7762 F       1  UNL1       -0.1643
@<TRIPOS>BOND
     1    16    15    1
     2    16    17    1
     3    17    18    1
     4    18    19    1
     5    19     1    1
     6     1     2   ar
     7     2     3   ar
     8     3     6    1
     9     6     7    2
    10     7     8    1
    11     8     9    2
    12     9    10    1
    13    10    11    2
    14    11    12    1
    15    12    13    2
    16    13    14    1
    17     3     4   ar
    18     4    23    1
    19    23    24    1
    20    23    25    1
    21    23    26    1
    22     4     5   ar
    23    19    20    1
    24    20    16    1
    25     5     1   ar
    26    14     6    1
    27    13     9    1
    28    15    21    1
    29    15    22    1
@<TRIPOS>MOLECULE
*****
 26 29 0 0 0
SMALL
GASTEIGER

@<TRIPOS>ATOM
      1 N         140.6160  140.1562  166.5411 N.ar    1  UNL1       -0.2514
      2 C         141.1628  141.1313  165.5410 C.ar    1  UNL1        0.0961
      3 C         140.4541  140.9058  164.2383 C.ar    1  UNL1        0.0385
      4 C         139.4694  139.7912  164.4332 C.ar    1  UNL1        0.1733
      5 N         139.5694  139.3280  165.8564 N.ar    1  UNL1       -0.1653
      6 C         140.6891  141.6621  162.9644 C.2     1  UNL1       -0.0132
      7 C         141.6181  141.1095  161.9245 C.2     1  UNL1       -0.0038
      8 C         141.8531  141.8658  160.6506 C.2     1  UNL1        0.0009
      9 C         141.1589  143.1747  160.4166 C.2     1  UNL1        0.0154
     10 C         141.1938  144.1379  159.2672 C.2     1  UNL1        0.0218
     11 C         140.2863  145.2858  159.5968 C.2     1  UNL1        0.0985
     12 N         139.6905  145.0321  160.9499 N.2     1  UNL1       -0.2478
     13 C         140.2298  143.7273  161.4565 C.2     1  UNL1        0.0634
     14 C         139.9949  142.9710  162.7304 C.3     1  UNL1        0.0721
     15 N         140.6081  140.3579  171.8174 N.3     1  UNL1       -0.3221
     16 C         141.0376  140.1239  170.3994 C.3     1  UNL1        0.0528
     17 C         142.3534  139.5539  169.9592 C.3     1  UNL1        0.0175
     18 C         142.3557  139.4966  168.4603 C.3     1  UNL1        0.0258
     19 C         141.0411  140.0313  167.9741 C.3     1  UNL1        0.1066
     20 C         140.2266  140.4189  169.1724 C.3     1  UNL1        0.0398
     21 H         141.3535  140.0682  172.4506 H       1  UNL1        0.1188
     22 H         139.7667  139.8151  172.0118 H       1  UNL1        0.1188
     23 C         138.5466  139.2372  163.3885 C.3     1  UNL1        0.4365
     24 F         137.6239  138.6832  162.3437 F       1  UNL1       -0.1643
     25 F         137.5881  140.3637  163.6378 F       1  UNL1       -0.1643
     26 F         139.5052  138.1108  163.1392 F       1  UNL1       -0.1643
@<TRIPOS>BOND
     1    16    15    1
     2    16    17    1
     3    17    18    1
     4    18    19    1
     5    19     1    1
     6     1     2   ar
     7     2     3   ar
     8     3     6    1
     9     6     7    2
    10     7     8    1
    11     8     9    2
    12     9    10    1
    13    10    11    2
    14    11    12    1
    15    12    13    2
    16    13    14    1
    17     3     4   ar
    18     4    23    1
    19    23    24    1
    20    23    25    1
    21    23    26    1
    22     4     5   ar
    23    19    20    1
    24    20    16    1
    25     5     1   ar
    26    14     6    1
    27    13     9    1
    28    15    21    1
    29    15    22    1
@<TRIPOS>MOLECULE
*****
 26 29 0 0 0
SMALL
GASTEIGER

@<TRIPOS>ATOM
      1 N         142.9724  141.1269  166.7094 N.ar    1  UNL1       -0.2514
      2 C         142.7006  140.0883  165.6619 C.ar    1  UNL1        0.0961
      3 C         143.1461  140.6368  164.3388 C.ar    1  UNL1        0.0385
      4 C         143.6934  142.0143  164.5685 C.ar    1  UNL1        0.1733
      5 N         143.5860  142.3173  166.0337 N.ar    1  UNL1       -0.1653
      6 C         143.0596  139.9314  163.0177 C.2     1  UNL1       -0.0132
      7 C         144.0315  138.8382  162.6861 C.2     1  UNL1       -0.0038
      8 C         143.9450  138.1328  161.3651 C.2     1  UNL1        0.0009
      9 C         142.8864  138.5208  160.3757 C.2     1  UNL1        0.0154
     10 C         142.5580  138.0086  159.0047 C.2     1  UNL1        0.0218
     11 C         141.3830  138.7854  158.4889 C.2     1  UNL1        0.0985
     12 N         140.9852  139.7776  159.5413 N.2     1  UNL1       -0.2478
     13 C         141.9144  139.6140  160.7074 C.2     1  UNL1        0.0634
     14 C         142.0010  140.3193  162.0284 C.3     1  UNL1        0.0721
     15 N         142.0825  142.3163  171.7764 N.3     1  UNL1       -0.3221
     16 C         142.2727  141.5444  170.5044 C.3     1  UNL1        0.0528
     17 C         142.1962  140.0536  170.3578 C.3     1  UNL1        0.0175
     18 C         142.4490  139.7157  168.9184 C.3     1  UNL1        0.0258
     19 C         142.6818  140.9978  168.1753 C.3     1  UNL1        0.1066
     20 C         142.5728  142.1280  169.1555 C.3     1  UNL1        0.0398
     21 H         141.8902  141.6694  172.5412 H       1  UNL1        0.1188
     22 H         141.2981  142.9595  171.6698 H       1  UNL1        0.1188
     23 C         144.2502  142.9285  163.5176 C.3     1  UNL1        0.4365
     24 F         144.8070  143.8426  162.4668 F       1  UNL1       -0.1643
     25 F         145.6060  142.3137  163.7012 F       1  UNL1       -0.1643
     26 F         142.8943  143.5433  163.3341 F       1  UNL1       -0.1643
@<TRIPOS>BOND
     1    16    15    1
     2    16    17    1
     3    17    18    1
     4    18    19    1
     5    19     1    1
     6     1     2   ar
     7     2     3   ar
     8     3     6    1
     9     6     7    2
    10     7     8    1
    11     8     9    2
    12     9    10    1
    13    10    11    2
    14    11    12    1
    15    12    13    2
    16    13    14    1
    17     3     4   ar
    18     4    23    1
    19    23    24    1
    20    23    25    1
    21    23    26    1
    22     4     5   ar
    23    19    20    1
    24    20    16    1
    25     5     1   ar
    26    14     6    1
    27    13     9    1
    28    15    21    1
    29    15    22    1
