@<TRIPOS>MOLECULE
*****
 26 28 0 0 0
SMALL
GASTEIGER

@<TRIPOS>ATOM
      1 C         145.0574  143.2064  165.4545 C.3     1  UNL1        0.0327
      2 C         143.5781  142.9717  165.5368 C.ar    1  UNL1       -0.0009
      3 C         142.8825  142.0598  166.5035 C.ar    1  UNL1        0.0727
      4 N         141.4093  142.1323  166.2309 N.ar    1  UNL1       -0.3135
      5 C         141.1944  143.0889  165.0957 C.ar    1  UNL1        0.1444
      6 N         139.9513  143.5546  164.3973 N.ar    1  UNL1       -0.2237
      7 C         140.0487  144.5391  163.2698 C.ar    1  UNL1        0.1366
      8 C         141.3891  145.0579  162.8408 C.ar    1  UNL1        0.0352
      9 C         142.6322  144.5922  163.5392 C.ar    1  UNL1        0.0619
     10 CL        143.9726  145.1110  163.1102 Cl      1  UNL1       -0.0821
     11 C         142.5348  143.6077  164.6667 C.ar    1  UNL1        0.0422
     12 C         138.8056  145.0049  162.5713 C.2     1  UNL1        0.2606
     13 N         137.4959  144.3235  162.8371 N.am    1  UNL1       -0.3241
     14 O         138.8721  146.1519  161.6071 O.2     1  UNL1       -0.2687
     15 H         137.4523  143.5706  163.4700 H       1  UNL1        0.1453
     16 H         136.6801  144.6292  162.3787 H       1  UNL1        0.1453
     17 C         140.3388  141.3801  166.9647 C.3     1  UNL1        0.0896
     18 C         139.2583  140.6755  166.1994 C.3     1  UNL1        0.0246
     19 C         140.3489  141.3327  168.4640 C.3     1  UNL1        0.0562
     20 C         140.4865  140.0174  169.1719 C.3     1  UNL1        0.0217
     21 C         140.4966  139.9700  170.6710 C.3     1  UNL1        0.0688
     22 N         140.3691  141.2379  171.4624 N.3     1  UNL1       -0.2952
     23 C         140.2316  142.5532  170.7546 C.3     1  UNL1        0.1043
     24 C         140.2215  142.6006  169.2554 C.3     1  UNL1        0.1784
     25 F         140.0839  143.9159  168.5475 F       1  UNL1       -0.2357
     26 H         141.2015  141.3043  172.0481 H       1  UNL1        0.1233
@<TRIPOS>BOND
     1     1     2    1
     2     2     3   ar
     3     3     4   ar
     4     4    17    1
     5    17    18    1
     6    17    19    1
     7    19    20    1
     8    20    21    1
     9    21    22    1
    10    22    23    1
    11    23    24    1
    12    24    25    1
    13     4     5   ar
    14     5     6   ar
    15     6     7   ar
    16     7    12    1
    17    12    13   am
    18    12    14    2
    19     7     8   ar
    20     8     9   ar
    21     9    10    1
    22     9    11   ar
    23    11     2   ar
    24    24    19    1
    25    11     5   ar
    26    22    26    1
    27    13    15    1
    28    13    16    1
@<TRIPOS>MOLECULE
*****
 26 28 0 0 0
SMALL
GASTEIGER

@<TRIPOS>ATOM
      1 C         138.5432  139.2307  166.6193 C.3     1  UNL1        0.0327
      2 C         139.8683  139.9191  166.4764 C.ar    1  UNL1       -0.0009
      3 C         140.6803  140.0162  165.2190 C.ar    1  UNL1        0.0727
      4 N         141.9278  140.7883  165.5314 N.ar    1  UNL1       -0.3135
      5 C         141.8868  141.1684  166.9819 C.ar    1  UNL1        0.1444
      6 N         142.8440  141.9342  167.8463 N.ar    1  UNL1       -0.2237
      7 C         142.5283  142.1628  169.2947 C.ar    1  UNL1        0.1366
      8 C         141.2554  141.6256  169.8788 C.ar    1  UNL1        0.0352
      9 C         140.2982  140.8597  169.0144 C.ar    1  UNL1        0.0619
     10 CL        139.0253  140.3225  169.5985 Cl      1  UNL1       -0.0821
     11 C         140.6139  140.6311  167.5660 C.ar    1  UNL1        0.0422
     12 C         143.4855  142.9287  170.1592 C.2     1  UNL1        0.2606
     13 N         142.9727  143.7286  171.3198 N.am    1  UNL1       -0.3241
     14 O         144.9556  142.8946  169.8630 O.2     1  UNL1       -0.2687
     15 H         142.0078  143.7509  171.5142 H       1  UNL1        0.1453
     16 H         143.6009  144.2312  171.8872 H       1  UNL1        0.1453
     17 C         143.0239  141.1219  164.5633 C.3     1  UNL1        0.0896
     18 C         144.1432  140.1501  164.3337 C.3     1  UNL1        0.0246
     19 C         143.0008  142.4273  163.8247 C.3     1  UNL1        0.0562
     20 C         142.1008  142.6014  162.6374 C.3     1  UNL1        0.0217
     21 C         142.0777  143.9068  161.8989 C.3     1  UNL1        0.0688
     22 N         142.9545  145.0381  162.3477 N.3     1  UNL1       -0.2952
     23 C         143.8545  144.8640  163.5351 C.3     1  UNL1        0.1043
     24 C         143.8776  143.5586  164.2735 C.3     1  UNL1        0.1784
     25 F         144.7775  143.3844  165.4609 F       1  UNL1       -0.2357
     26 H         142.3379  145.8229  162.5582 H       1  UNL1        0.1233
@<TRIPOS>BOND
     1     1     2    1
     2     2     3   ar
     3     3     4   ar
     4     4    17    1
     5    17    18    1
     6    17    19    1
     7    19    20    1
     8    20    21    1
     9    21    22    1
    10    22    23    1
    11    23    24    1
    12    24    25    1
    13     4     5   ar
    14     5     6   ar
    15     6     7   ar
    16     7    12    1
    17    12    13   am
    18    12    14    2
    19     7     8   ar
    20     8     9   ar
    21     9    10    1
    22     9    11   ar
    23    11     2   ar
    24    24    19    1
    25    11     5   ar
    26    22    26    1
    27    13    15    1
    28    13    16    1
@<TRIPOS>MOLECULE
*****
 26 28 0 0 0
SMALL
GASTEIGER

@<TRIPOS>ATOM
      1 C         138.8469  144.7116  165.1663 C.3     1  UNL1        0.0327
      2 C         139.4396  143.3512  165.3852 C.ar    1  UNL1       -0.0009
      3 C         140.3412  142.9538  166.5163 C.ar    1  UNL1        0.0727
      4 N         140.6935  141.5063  166.3415 N.ar    1  UNL1       -0.3135
      5 C         140.0098  141.0090  165.1025 C.ar    1  UNL1        0.1444
      6 N         139.9927  139.6653  164.4361 N.ar    1  UNL1       -0.2237
      7 C         139.2006  139.4618  163.1787 C.ar    1  UNL1        0.1366
      8 C         138.4256  140.6020  162.5877 C.ar    1  UNL1        0.0352
      9 C         138.4427  141.9457  163.2540 C.ar    1  UNL1        0.0619
     10 CL        137.6677  143.0859  162.6630 Cl      1  UNL1       -0.0821
     11 C         139.2348  142.1492  164.5115 C.ar    1  UNL1        0.0422
     12 C         139.1836  138.1181  162.5122 C.2     1  UNL1        0.2606
     13 N         137.9353  137.6312  161.8378 N.am    1  UNL1       -0.3241
     14 O         140.4147  137.2612  162.5202 O.2     1  UNL1       -0.2687
     15 H         137.1273  138.1936  161.8326 H       1  UNL1        0.1453
     16 H         137.9241  136.7493  161.4004 H       1  UNL1        0.1453
     17 C         141.5750  140.6980  167.2469 C.3     1  UNL1        0.0896
     18 C         142.7373  139.9383  166.6797 C.3     1  UNL1        0.0246
     19 C         141.2940  140.6492  168.7196 C.3     1  UNL1        0.0562
     20 C         142.3349  141.1083  169.6973 C.3     1  UNL1        0.0217
     21 C         142.0539  141.0596  171.1699 C.3     1  UNL1        0.0688
     22 N         140.7321  140.5518  171.6648 N.3     1  UNL1       -0.2952
     23 C         139.6912  140.0927  170.6872 C.3     1  UNL1        0.1043
     24 C         139.9722  140.1414  169.2146 C.3     1  UNL1        0.1784
     25 F         138.9314  139.6823  168.2368 F       1  UNL1       -0.2357
     26 H         140.3124  141.3052  172.2095 H       1  UNL1        0.1233
@<TRIPOS>BOND
     1     1     2    1
     2     2     3   ar
     3     3     4   ar
     4     4    17    1
     5    17    18    1
     6    17    19    1
     7    19    20    1
     8    20    21    1
     9    21    22    1
    10    22    23    1
    11    23    24    1
    12    24    25    1
    13     4     5   ar
    14     5     6   ar
    15     6     7   ar
    16     7    12    1
    17    12    13   am
    18    12    14    2
    19     7     8   ar
    20     8     9   ar
    21     9    10    1
    22     9    11   ar
    23    11     2   ar
    24    24    19    1
    25    11     5   ar
    26    22    26    1
    27    13    15    1
    28    13    16    1
@<TRIPOS>MOLECULE
*****
 26 28 0 0 0
SMALL
GASTEIGER

@<TRIPOS>ATOM
      1 C         138.8071  144.7549  164.9660 C.3     1  UNL1        0.0327
      2 C         139.9513  143.8235  165.2366 C.ar    1  UNL1       -0.0009
      3 C         140.0965  142.9292  166.4321 C.ar    1  UNL1        0.0727
      4 N         141.3861  142.1759  166.2934 N.ar    1  UNL1       -0.3135
      5 C         142.0380  142.6045  165.0123 C.ar    1  UNL1        0.1444
      6 N         143.3245  142.1992  164.3561 N.ar    1  UNL1       -0.2237
      7 C         143.7242  142.8122  163.0468 C.ar    1  UNL1        0.1366
      8 C         142.8374  143.8305  162.3936 C.ar    1  UNL1        0.0352
      9 C         141.5509  144.2358  163.0498 C.ar    1  UNL1        0.0619
     10 CL        140.6641  145.2541  162.3966 Cl      1  UNL1       -0.0821
     11 C         141.1512  143.6228  164.3591 C.ar    1  UNL1        0.0422
     12 C         145.0108  142.4069  162.3905 C.2     1  UNL1        0.2606
     13 N         145.2575  142.7463  160.9504 N.am    1  UNL1       -0.3241
     14 O         146.0504  141.6622  163.1744 O.2     1  UNL1       -0.2687
     15 H         144.5752  143.2351  160.4360 H       1  UNL1        0.1453
     16 H         146.1019  142.4803  160.5197 H       1  UNL1        0.1453
     17 C         141.9287  141.1704  167.2653 C.3     1  UNL1        0.0896
     18 C         142.4190  139.8408  166.7737 C.3     1  UNL1        0.0246
     19 C         141.9810  141.4945  168.7290 C.3     1  UNL1        0.0562
     20 C         142.9066  142.5644  169.2277 C.3     1  UNL1        0.0217
     21 C         142.9588  142.8884  170.6913 C.3     1  UNL1        0.0688
     22 N         142.0856  142.1426  171.6563 N.3     1  UNL1       -0.2952
     23 C         141.1600  141.0726  171.1576 C.3     1  UNL1        0.1043
     24 C         141.1078  140.7486  169.6940 C.3     1  UNL1        0.1784
     25 F         140.1823  139.6787  169.1953 F       1  UNL1       -0.2357
     26 H         141.5059  142.8376  172.1266 H       1  UNL1        0.1233
@<TRIPOS>BOND
     1     1     2    1
     2     2     3   ar
     3     3     4   ar
     4     4    17    1
     5    17    18    1
     6    17    19    1
     7    19    20    1
     8    20    21    1
     9    21    22    1
    10    22    23    1
    11    23    24    1
    12    24    25    1
    13     4     5   ar
    14     5     6   ar
    15     6     7   ar
    16     7    12    1
    17    12    13   am
    18    12    14    2
    19     7     8   ar
    20     8     9   ar
    21     9    10    1
    22     9    11   ar
    23    11     2   ar
    24    24    19    1
    25    11     5   ar
    26    22    26    1
    27    13    15    1
    28    13    16    1
@<TRIPOS>MOLECULE
*****
 26 28 0 0 0
SMALL
GASTEIGER

@<TRIPOS>ATOM
      1 C         140.6851  137.3789  164.6688 C.3     1  UNL1        0.0327
      2 C         140.7455  138.7834  165.1921 C.ar    1  UNL1       -0.0009
      3 C         141.6769  139.2896  166.2532 C.ar    1  UNL1        0.0727
      4 N         141.3920  140.7473  166.4629 N.ar    1  UNL1       -0.3135
      5 C         140.2845  141.1419  165.5314 C.ar    1  UNL1        0.1444
      6 N         139.5883  142.4497  165.2969 N.ar    1  UNL1       -0.2237
      7 C         138.4925  142.5436  164.2769 C.ar    1  UNL1        0.1366
      8 C         138.0929  141.3298  163.4915 C.ar    1  UNL1        0.0352
      9 C         138.7891  140.0220  163.7260 C.ar    1  UNL1        0.0619
     10 CL        138.3895  138.8082  162.9405 Cl      1  UNL1       -0.0821
     11 C         139.8849  139.9281  164.7459 C.ar    1  UNL1        0.0422
     12 C         137.7963  143.8514  164.0424 C.2     1  UNL1        0.2606
     13 N         137.4858  144.2955  162.6437 N.am    1  UNL1       -0.3241
     14 O         137.4105  144.7151  165.2065 O.2     1  UNL1       -0.2687
     15 H         137.7390  143.7287  161.8796 H       1  UNL1        0.1453
     16 H         137.0289  145.1538  162.4897 H       1  UNL1        0.1453
     17 C         142.0918  141.6517  167.4337 C.3     1  UNL1        0.0896
     18 C         143.3306  142.3865  167.0152 C.3     1  UNL1        0.0246
     19 C         141.5526  141.8212  168.8233 C.3     1  UNL1        0.0562
     20 C         140.5346  142.8855  169.1081 C.3     1  UNL1        0.0217
     21 C         139.9955  143.0549  170.4975 C.3     1  UNL1        0.0688
     22 N         140.4744  142.1603  171.6022 N.3     1  UNL1       -0.2952
     23 C         141.4924  141.0960  171.3174 C.3     1  UNL1        0.1043
     24 C         142.0315  140.9266  169.9279 C.3     1  UNL1        0.1784
     25 F         143.0495  139.8624  169.6430 F       1  UNL1       -0.2357
     26 H         139.6514  141.6879  171.9762 H       1  UNL1        0.1233
@<TRIPOS>BOND
     1     1     2    1
     2     2     3   ar
     3     3     4   ar
     4     4    17    1
     5    17    18    1
     6    17    19    1
     7    19    20    1
     8    20    21    1
     9    21    22    1
    10    22    23    1
    11    23    24    1
    12    24    25    1
    13     4     5   ar
    14     5     6   ar
    15     6     7   ar
    16     7    12    1
    17    12    13   am
    18    12    14    2
    19     7     8   ar
    20     8     9   ar
    21     9    10    1
    22     9    11   ar
    23    11     2   ar
    24    24    19    1
    25    11     5   ar
    26    22    26    1
    27    13    15    1
    28    13    16    1
@<TRIPOS>MOLECULE
*****
 26 28 0 0 0
SMALL
GASTEIGER

@<TRIPOS>ATOM
      1 C         138.6494  138.3946  164.8702 C.3     1  UNL1        0.0327
      2 C         139.4161  139.6357  165.2191 C.ar    1  UNL1       -0.0009
      3 C         140.3379  139.8025  166.3906 C.ar    1  UNL1        0.0727
      4 N         140.8871  141.1978  166.3533 N.ar    1  UNL1       -0.3135
      5 C         140.3048  141.8934  165.1587 C.ar    1  UNL1        0.1444
      6 N         140.4849  143.2812  164.6187 N.ar    1  UNL1       -0.2237
      7 C         139.7559  143.7035  163.3777 C.ar    1  UNL1        0.1366
      8 C         138.8467  142.7380  162.6767 C.ar    1  UNL1        0.0352
      9 C         138.6666  141.3503  163.2167 C.ar    1  UNL1        0.0619
     10 CL        137.7575  140.3848  162.5158 Cl      1  UNL1       -0.0821
     11 C         139.3956  140.9280  164.4577 C.ar    1  UNL1        0.0422
     12 C         139.9359  145.0913  162.8376 C.2     1  UNL1        0.2606
     13 N         141.1771  145.8678  163.1639 N.am    1  UNL1       -0.3241
     14 O         138.8749  145.7024  161.9712 O.2     1  UNL1       -0.2687
     15 H         141.8735  145.4667  163.7325 H       1  UNL1        0.1453
     16 H         141.2953  146.7787  162.8095 H       1  UNL1        0.1453
     17 C         141.8497  141.7931  167.3377 C.3     1  UNL1        0.0896
     18 C         143.1878  142.2870  166.8736 C.3     1  UNL1        0.0246
     19 C         141.4742  141.8945  168.7865 C.3     1  UNL1        0.0562
     20 C         142.0839  140.9576  169.7867 C.3     1  UNL1        0.0217
     21 C         141.7083  141.0591  171.2353 C.3     1  UNL1        0.0688
     22 N         140.7230  142.0974  171.6838 N.3     1  UNL1       -0.2952
     23 C         140.1133  143.0343  170.6836 C.3     1  UNL1        0.1043
     24 C         140.4888  142.9328  169.2349 C.3     1  UNL1        0.1784
     25 F         139.8791  143.8697  168.2346 F       1  UNL1       -0.2357
     26 H         141.1990  142.6753  172.3765 H       1  UNL1        0.1233
@<TRIPOS>BOND
     1     1     2    1
     2     2     3   ar
     3     3     4   ar
     4     4    17    1
     5    17    18    1
     6    17    19    1
     7    19    20    1
     8    20    21    1
     9    21    22    1
    10    22    23    1
    11    23    24    1
    12    24    25    1
    13     4     5   ar
    14     5     6   ar
    15     6     7   ar
    16     7    12    1
    17    12    13   am
    18    12    14    2
    19     7     8   ar
    20     8     9   ar
    21     9    10    1
    22     9    11   ar
    23    11     2   ar
    24    24    19    1
    25    11     5   ar
    26    22    26    1
    27    13    15    1
    28    13    16    1
@<TRIPOS>MOLECULE
*****
 26 28 0 0 0
SMALL
GASTEIGER

@<TRIPOS>ATOM
      1 C         144.8571  143.3398  165.8596 C.3     1  UNL1        0.0327
      2 C         143.4840  142.8101  165.5697 C.ar    1  UNL1       -0.0009
      3 C         142.9071  141.5256  166.0868 C.ar    1  UNL1        0.0727
      4 N         141.5133  141.3936  165.5484 N.ar    1  UNL1       -0.3135
      5 C         141.2288  142.5964  164.6985 C.ar    1  UNL1        0.1444
      6 N         140.0180  143.0076  163.9144 N.ar    1  UNL1       -0.2237
      7 C         140.0251  144.2943  163.1435 C.ar    1  UNL1        0.1366
      8 C         141.2431  145.1698  163.1567 C.ar    1  UNL1        0.0352
      9 C         142.4539  144.7586  163.9408 C.ar    1  UNL1        0.0619
     10 CL        143.6718  145.6340  163.9540 Cl      1  UNL1       -0.0821
     11 C         142.4467  143.4719  164.7117 C.ar    1  UNL1        0.0422
     12 C         138.8143  144.7056  162.3594 C.2     1  UNL1        0.2606
     13 N         137.6239  143.7959  162.2856 N.am    1  UNL1       -0.3241
     14 O         138.7939  146.0265  161.6490 O.2     1  UNL1       -0.2687
     15 H         137.6373  142.9289  162.7519 H       1  UNL1        0.1453
     16 H         136.8293  144.0658  161.7710 H       1  UNL1        0.1453
     17 C         140.5697  140.2581  165.8133 C.3     1  UNL1        0.0896
     18 C         139.9294  140.1140  167.1620 C.3     1  UNL1        0.0246
     19 C         140.2663  139.2665  164.7293 C.3     1  UNL1        0.0562
     20 C         138.9599  139.3340  163.9953 C.3     1  UNL1        0.0217
     21 C         138.6566  138.3425  162.9114 C.3     1  UNL1        0.0688
     22 N         139.6597  137.2835  162.5614 N.3     1  UNL1       -0.2952
     23 C         140.9661  137.2160  163.2954 C.3     1  UNL1        0.1043
     24 C         141.2694  138.2076  164.3793 C.3     1  UNL1        0.1784
     25 F         142.5758  138.1402  165.1134 F       1  UNL1       -0.2357
     26 H         139.8829  137.4043  161.5735 H       1  UNL1        0.1233
@<TRIPOS>BOND
     1     1     2    1
     2     2     3   ar
     3     3     4   ar
     4     4    17    1
     5    17    18    1
     6    17    19    1
     7    19    20    1
     8    20    21    1
     9    21    22    1
    10    22    23    1
    11    23    24    1
    12    24    25    1
    13     4     5   ar
    14     5     6   ar
    15     6     7   ar
    16     7    12    1
    17    12    13   am
    18    12    14    2
    19     7     8   ar
    20     8     9   ar
    21     9    10    1
    22     9    11   ar
    23    11     2   ar
    24    24    19    1
    25    11     5   ar
    26    22    26    1
    27    13    15    1
    28    13    16    1
@<TRIPOS>MOLECULE
*****
 26 28 0 0 0
SMALL
GASTEIGER

@<TRIPOS>ATOM
      1 C         140.7062  142.3464  167.3336 C.3     1  UNL1        0.0327
      2 C         141.4422  142.4242  166.0289 C.ar    1  UNL1       -0.0009
      3 C         142.6877  141.6679  165.6727 C.ar    1  UNL1        0.0727
      4 N         143.0770  142.0483  164.2750 N.ar    1  UNL1       -0.3135
      5 C         142.0722  143.0396  163.7673 C.ar    1  UNL1        0.1444
      6 N         141.9468  143.7607  162.4581 N.ar    1  UNL1       -0.2237
      7 C         140.8110  144.7141  162.2328 C.ar    1  UNL1        0.1366
      8 C         139.8005  144.9464  163.3168 C.ar    1  UNL1        0.0352
      9 C         139.9260  144.2253  164.6261 C.ar    1  UNL1        0.0619
     10 CL        138.9155  144.4576  165.7101 Cl      1  UNL1       -0.0821
     11 C         141.0618  143.2719  164.8513 C.ar    1  UNL1        0.0422
     12 C         140.6855  145.4353  160.9235 C.2     1  UNL1        0.2606
     13 N         141.8023  145.3749  159.9240 N.am    1  UNL1       -0.3241
     14 O         139.4432  146.2168  160.6137 O.2     1  UNL1       -0.2687
     15 H         142.6177  144.8620  160.1273 H       1  UNL1        0.1453
     16 H         141.7200  145.8483  159.0647 H       1  UNL1        0.1453
     17 C         144.2630  141.5286  163.5178 C.3     1  UNL1        0.0896
     18 C         145.6413  142.0123  163.8587 C.3     1  UNL1        0.0246
     19 C         144.0707  140.5251  162.4195 C.3     1  UNL1        0.0562
     20 C         144.0098  140.9790  160.9911 C.3     1  UNL1        0.0217
     21 C         143.8175  139.9755  159.8930 C.3     1  UNL1        0.0688
     22 N         143.6861  138.5182  160.2231 N.3     1  UNL1       -0.2952
     23 C         143.7470  138.0643  161.6515 C.3     1  UNL1        0.1043
     24 C         143.9393  139.0678  162.7497 C.3     1  UNL1        0.1784
     25 F         144.0003  138.6140  164.1781 F       1  UNL1       -0.2357
     26 H         144.4363  138.0354  159.7285 H       1  UNL1        0.1233
@<TRIPOS>BOND
     1     1     2    1
     2     2     3   ar
     3     3     4   ar
     4     4    17    1
     5    17    18    1
     6    17    19    1
     7    19    20    1
     8    20    21    1
     9    21    22    1
    10    22    23    1
    11    23    24    1
    12    24    25    1
    13     4     5   ar
    14     5     6   ar
    15     6     7   ar
    16     7    12    1
    17    12    13   am
    18    12    14    2
    19     7     8   ar
    20     8     9   ar
    21     9    10    1
    22     9    11   ar
    23    11     2   ar
    24    24    19    1
    25    11     5   ar
    26    22    26    1
    27    13    15    1
    28    13    16    1
@<TRIPOS>MOLECULE
*****
 26 28 0 0 0
SMALL
GASTEIGER

@<TRIPOS>ATOM
      1 C         137.8563  143.9266  164.7461 C.3     1  UNL1        0.0327
      2 C         139.0317  143.0593  165.0871 C.ar    1  UNL1       -0.0009
      3 C         140.1476  143.4152  166.0242 C.ar    1  UNL1        0.0727
      4 N         141.1031  142.2597  166.0671 N.ar    1  UNL1       -0.3135
      5 C         140.5778  141.1897  165.1565 C.ar    1  UNL1        0.1444
      6 N         141.0997  139.8293  164.8006 N.ar    1  UNL1       -0.2237
      7 C         140.3415  138.9631  163.8390 C.ar    1  UNL1        0.1366
      8 C         139.0613  139.4573  163.2333 C.ar    1  UNL1        0.0352
      9 C         138.5393  140.8177  163.5892 C.ar    1  UNL1        0.0619
     10 CL        137.2591  141.3119  162.9835 Cl      1  UNL1       -0.0821
     11 C         139.2976  141.6839  164.5508 C.ar    1  UNL1        0.0422
     12 C         140.8635  137.6026  163.4830 C.2     1  UNL1        0.2606
     13 N         141.1009  136.5851  164.5594 N.am    1  UNL1       -0.3241
     14 O         141.1480  137.2595  162.0508 O.2     1  UNL1       -0.2687
     15 H         140.9142  136.8103  165.4994 H       1  UNL1        0.1453
     16 H         141.4435  135.6922  164.3258 H       1  UNL1        0.1453
     17 C         142.3628  142.1869  166.8782 C.3     1  UNL1        0.0896
     18 C         143.6668  142.6235  166.2792 C.3     1  UNL1        0.0246
     19 C         142.3185  141.6775  168.2884 C.3     1  UNL1        0.0562
     20 C         141.9986  142.6151  169.4148 C.3     1  UNL1        0.0217
     21 C         141.9543  142.1056  170.8249 C.3     1  UNL1        0.0688
     22 N         142.2298  140.6587  171.1087 N.3     1  UNL1       -0.2952
     23 C         142.5497  139.7212  169.9823 C.3     1  UNL1        0.1043
     24 C         142.5940  140.2306  168.5722 C.3     1  UNL1        0.1784
     25 F         142.9139  139.2932  167.4457 F       1  UNL1       -0.2357
     26 H         141.4021  140.2873  171.5749 H       1  UNL1        0.1233
@<TRIPOS>BOND
     1     1     2    1
     2     2     3   ar
     3     3     4   ar
     4     4    17    1
     5    17    18    1
     6    17    19    1
     7    19    20    1
     8    20    21    1
     9    21    22    1
    10    22    23    1
    11    23    24    1
    12    24    25    1
    13     4     5   ar
    14     5     6   ar
    15     6     7   ar
    16     7    12    1
    17    12    13   am
    18    12    14    2
    19     7     8   ar
    20     8     9   ar
    21     9    10    1
    22     9    11   ar
    23    11     2   ar
    24    24    19    1
    25    11     5   ar
    26    22    26    1
    27    13    15    1
    28    13    16    1
