@<TRIPOS>MOLECULE
*****
 32 35 0 0 0
SMALL
GASTEIGER

@<TRIPOS>ATOM
      1 O         143.3572  138.6338  164.3911 O.3     1  UNL1       -0.3470
      2 C         143.3878  139.5171  165.6030 C.3     1  UNL1        0.1467
      3 C         144.1928  144.4482  162.7960 C.3     1  UNL1        0.0896
      4 N         143.8364  143.2946  163.6861 N.3     1  UNL1       -0.2715
      5 C         142.9346  143.5080  164.8655 C.3     1  UNL1        0.0725
      6 C         142.5782  142.3544  165.7556 C.3     1  UNL1        0.0238
      7 C         143.1237  140.9874  165.4662 C.3     1  UNL1        0.0489
      8 C         144.0255  140.7740  164.2868 C.3     1  UNL1        0.0238
      9 C         144.3819  141.9276  163.3967 C.3     1  UNL1        0.0725
     10 C         142.3135  140.6902  166.6932 C.ar    1  UNL1       -0.0202
     11 C         142.8275  139.7190  167.7142 C.ar    1  UNL1       -0.0019
     12 C         142.0174  139.4218  168.9411 C.ar    1  UNL1        0.0293
     13 C         140.6932  140.0958  169.1470 C.ar    1  UNL1        0.1401
     14 F         139.8831  139.7986  170.3739 F       1  UNL1       -0.2042
     15 C         140.1792  141.0670  168.1259 C.ar    1  UNL1        0.0293
     16 C         140.9894  141.3642  166.8990 C.ar    1  UNL1       -0.0019
     17 C         142.0793  137.9609  163.9856 C.3     1  UNL1        0.1874
     18 C         140.7601  138.5752  164.3492 C.ar    1  UNL1        0.0883
     19 C         139.8875  137.9224  165.3801 C.ar    1  UNL1        0.0211
     20 C         138.5683  138.5367  165.7436 C.ar    1  UNL1        0.0738
     21 C         138.1216  139.8038  165.0765 C.ar    1  UNL1        0.0186
     22 C         138.9942  140.4566  164.0457 C.ar    1  UNL1        0.0583
     23 N         140.3134  139.8423  163.6821 N.ar    1  UNL1       -0.2515
     24 C         138.5475  141.7236  163.3786 C.3     1  UNL1        0.0403
     25 C         137.9315  142.4265  162.2053 C.3     1  UNL1        0.0063
     26 C         138.3898  143.2151  163.3962 C.3     1  UNL1        0.0056
     27 C         138.0294  144.5999  162.9459 C.3     1  UNL1        0.0004
     28 C         138.9732  143.5228  164.7435 C.3     1  UNL1        0.0004
     29 C         137.6956  137.8840  166.7745 C.3     1  UNL1        0.4187
     30 F         136.8230  137.2314  167.8052 F       1  UNL1       -0.1659
     31 F         137.5447  139.1994  167.4795 F       1  UNL1       -0.1659
     32 F         137.8466  136.5687  166.0694 F       1  UNL1       -0.1659
@<TRIPOS>BOND
     1     3     4    1
     2     4     5    1
     3     5     6    1
     4     6     7    1
     5     7     2    1
     6     2     1    1
     7     1    17    1
     8    17    18    1
     9    18    19   ar
    10    19    20   ar
    11    20    29    1
    12    29    30    1
    13    29    31    1
    14    29    32    1
    15    20    21   ar
    16    21    22   ar
    17    22    24    1
    18    24    25    1
    19    25    26    1
    20    26    27    1
    21    26    28    1
    22    22    23   ar
    23     7    10    1
    24    10    11   ar
    25    11    12   ar
    26    12    13   ar
    27    13    14    1
    28    13    15   ar
    29    15    16   ar
    30     7     8    1
    31     8     9    1
    32     9     4    1
    33    23    18   ar
    34    16    10   ar
    35    26    24    1
@<TRIPOS>MOLECULE
*****
 32 35 0 0 0
SMALL
GASTEIGER

@<TRIPOS>ATOM
      1 O         140.2137  141.0763  161.9463 O.3     1  UNL1       -0.3470
      2 C         141.6565  140.7203  162.1498 C.3     1  UNL1        0.1467
      3 C         142.7081  137.3974  157.6006 C.3     1  UNL1        0.0896
      4 N         142.5398  138.0807  158.9253 N.3     1  UNL1       -0.2715
      5 C         143.0187  137.4127  160.1800 C.3     1  UNL1        0.0725
      6 C         142.8504  138.0960  161.5047 C.3     1  UNL1        0.0238
      7 C         142.2033  139.4474  161.5747 C.3     1  UNL1        0.0489
      8 C         141.7244  140.1154  160.3200 C.3     1  UNL1        0.0238
      9 C         141.8927  139.4321  158.9953 C.3     1  UNL1        0.0725
     10 C         142.4923  139.2213  163.0292 C.ar    1  UNL1       -0.0202
     11 C         141.8529  138.0726  163.7512 C.ar    1  UNL1       -0.0019
     12 C         142.1418  137.8465  165.2056 C.ar    1  UNL1        0.0293
     13 C         143.0703  138.7693  165.9380 C.ar    1  UNL1        0.1401
     14 F         143.3593  138.5433  167.3925 F       1  UNL1       -0.2042
     15 C         143.7098  139.9181  165.2160 C.ar    1  UNL1        0.0293
     16 C         143.4208  140.1441  163.7615 C.ar    1  UNL1       -0.0019
     17 C         139.4176  141.6567  163.0774 C.3     1  UNL1        0.1874
     18 C         139.5308  141.0693  164.4530 C.ar    1  UNL1        0.0883
     19 C         138.7142  139.8672  164.8247 C.ar    1  UNL1        0.0211
     20 C         138.8274  139.2799  166.2003 C.ar    1  UNL1        0.0738
     21 C         139.7571  139.8946  167.2041 C.ar    1  UNL1        0.0186
     22 C         140.5737  141.0967  166.8324 C.ar    1  UNL1        0.0583
     23 N         140.4605  141.6841  165.4568 N.ar    1  UNL1       -0.2515
     24 C         141.5033  141.7114  167.8362 C.3     1  UNL1        0.0403
     25 C         142.8960  141.9607  168.3349 C.3     1  UNL1        0.0063
     26 C         141.7212  142.5268  169.0762 C.3     1  UNL1        0.0056
     27 C         142.4329  143.2305  170.1936 C.3     1  UNL1        0.0004
     28 C         140.2993  142.8486  169.4295 C.3     1  UNL1        0.0004
     29 C         138.0108  138.0777  166.5721 C.3     1  UNL1        0.4187
     30 F         137.1943  136.8757  166.9439 F       1  UNL1       -0.1659
     31 F         137.4036  138.8425  167.7108 F       1  UNL1       -0.1659
     32 F         138.6180  137.3131  165.4334 F       1  UNL1       -0.1659
@<TRIPOS>BOND
     1     3     4    1
     2     4     5    1
     3     5     6    1
     4     6     7    1
     5     7     2    1
     6     2     1    1
     7     1    17    1
     8    17    18    1
     9    18    19   ar
    10    19    20   ar
    11    20    29    1
    12    29    30    1
    13    29    31    1
    14    29    32    1
    15    20    21   ar
    16    21    22   ar
    17    22    24    1
    18    24    25    1
    19    25    26    1
    20    26    27    1
    21    26    28    1
    22    22    23   ar
    23     7    10    1
    24    10    11   ar
    25    11    12   ar
    26    12    13   ar
    27    13    14    1
    28    13    15   ar
    29    15    16   ar
    30     7     8    1
    31     8     9    1
    32     9     4    1
    33    23    18   ar
    34    16    10   ar
    35    26    24    1
@<TRIPOS>MOLECULE
*****
 32 35 0 0 0
SMALL
GASTEIGER

@<TRIPOS>ATOM
      1 O         141.6517  137.7571  162.3374 O.3     1  UNL1       -0.3470
      2 C         140.1882  137.6612  162.6519 C.3     1  UNL1        0.1467
      3 C         138.1050  140.5306  158.1498 C.3     1  UNL1        0.0896
      4 N         138.4808  139.9109  159.4631 N.3     1  UNL1       -0.2715
      5 C         137.7689  140.3223  160.7176 C.3     1  UNL1        0.0725
      6 C         138.1447  139.7025  162.0309 C.3     1  UNL1        0.0238
      7 C         139.2324  138.6713  162.0896 C.3     1  UNL1        0.0489
      8 C         139.9443  138.2599  160.8351 C.3     1  UNL1        0.0238
      9 C         139.5685  138.8797  159.5218 C.3     1  UNL1        0.0725
     10 C         138.8524  138.7320  163.5395 C.ar    1  UNL1       -0.0202
     11 C         138.8608  137.4829  164.3699 C.ar    1  UNL1       -0.0019
     12 C         138.4808  137.5434  165.8196 C.ar    1  UNL1        0.0293
     13 C         138.0924  138.8532  166.4390 C.ar    1  UNL1        0.1401
     14 F         137.7124  138.9138  167.8888 F       1  UNL1       -0.2042
     15 C         138.0839  140.1024  165.6086 C.ar    1  UNL1        0.0293
     16 C         138.4640  140.0417  164.1588 C.ar    1  UNL1       -0.0019
     17 C         142.6147  138.2296  163.3859 C.3     1  UNL1        0.1874
     18 C         142.2290  139.3465  164.3099 C.ar    1  UNL1        0.0883
     19 C         142.0066  139.0710  165.7675 C.ar    1  UNL1        0.0211
     20 C         141.6208  140.1879  166.6914 C.ar    1  UNL1        0.0738
     21 C         141.4574  141.5802  166.1578 C.ar    1  UNL1        0.0186
     22 C         141.6798  141.8557  164.7001 C.ar    1  UNL1        0.0583
     23 N         142.0656  140.7388  163.7762 N.ar    1  UNL1       -0.2515
     24 C         141.5164  143.2479  164.1665 C.3     1  UNL1        0.0403
     25 C         142.0430  144.6413  163.9892 C.3     1  UNL1        0.0063
     26 C         140.7070  144.2663  163.4196 C.3     1  UNL1        0.0056
     27 C         140.3141  145.5723  162.7952 C.3     1  UNL1        0.0004
     28 C         139.5074  143.4376  163.0669 C.3     1  UNL1        0.0004
     29 C         141.3984  139.9126  168.1492 C.3     1  UNL1        0.4187
     30 F         141.1760  139.6373  169.6068 F       1  UNL1       -0.1659
     31 F         140.1652  140.7662  168.1222 F       1  UNL1       -0.1659
     32 F         142.6316  139.0591  168.1760 F       1  UNL1       -0.1659
@<TRIPOS>BOND
     1     3     4    1
     2     4     5    1
     3     5     6    1
     4     6     7    1
     5     7     2    1
     6     2     1    1
     7     1    17    1
     8    17    18    1
     9    18    19   ar
    10    19    20   ar
    11    20    29    1
    12    29    30    1
    13    29    31    1
    14    29    32    1
    15    20    21   ar
    16    21    22   ar
    17    22    24    1
    18    24    25    1
    19    25    26    1
    20    26    27    1
    21    26    28    1
    22    22    23   ar
    23     7    10    1
    24    10    11   ar
    25    11    12   ar
    26    12    13   ar
    27    13    14    1
    28    13    15   ar
    29    15    16   ar
    30     7     8    1
    31     8     9    1
    32     9     4    1
    33    23    18   ar
    34    16    10   ar
    35    26    24    1
@<TRIPOS>MOLECULE
*****
 32 35 0 0 0
SMALL
GASTEIGER

@<TRIPOS>ATOM
      1 O         138.6987  138.7826  162.8590 O.3     1  UNL1       -0.3470
      2 C         138.8199  140.2519  162.5825 C.3     1  UNL1        0.1467
      3 C         143.7067  139.8541  159.6154 C.3     1  UNL1        0.0896
      4 N         142.5192  140.1805  160.4718 N.3     1  UNL1       -0.2715
      5 C         142.4839  141.4639  161.2474 C.3     1  UNL1        0.0725
      6 C         141.2964  141.7903  162.1037 C.3     1  UNL1        0.0238
      7 C         140.1442  140.8333  162.1844 C.3     1  UNL1        0.0489
      8 C         140.1795  139.5499  161.4087 C.3     1  UNL1        0.0238
      9 C         141.3670  139.2235  160.5524 C.3     1  UNL1        0.0725
     10 C         139.6490  141.9148  163.0983 C.ar    1  UNL1       -0.0202
     11 C         140.4168  142.2568  164.3406 C.ar    1  UNL1       -0.0019
     12 C         139.9217  143.3382  165.2546 C.ar    1  UNL1        0.0293
     13 C         138.6587  144.0777  164.9261 C.ar    1  UNL1        0.1401
     14 F         138.1635  145.1592  165.8400 F       1  UNL1       -0.2042
     15 C         137.8908  143.7358  163.6837 C.ar    1  UNL1        0.0293
     16 C         138.3860  142.6543  162.7698 C.ar    1  UNL1       -0.0019
     17 C         138.7282  138.2805  164.2722 C.3     1  UNL1        0.1874
     18 C         139.7661  138.7901  165.2277 C.ar    1  UNL1        0.0883
     19 C         141.2227  138.5959  164.9264 C.ar    1  UNL1        0.0211
     20 C         142.2605  139.1056  165.8819 C.ar    1  UNL1        0.0738
     21 C         141.8420  139.8095  167.1386 C.ar    1  UNL1        0.0186
     22 C         140.3854  140.0037  167.4399 C.ar    1  UNL1        0.0583
     23 N         139.3474  139.4940  166.4844 N.ar    1  UNL1       -0.2515
     24 C         139.9668  140.7076  168.6966 C.3     1  UNL1        0.0403
     25 C         139.2422  140.6999  170.0100 C.3     1  UNL1        0.0063
     26 C         139.9663  141.9342  169.5599 C.3     1  UNL1        0.0056
     27 C         139.6797  142.8417  170.7195 C.3     1  UNL1        0.0004
     28 C         140.7898  142.8532  168.7072 C.3     1  UNL1        0.0004
     29 C         143.7172  138.9114  165.5807 C.3     1  UNL1        0.4187
     30 F         145.1737  138.7172  165.2795 F       1  UNL1       -0.1659
     31 F         143.6326  139.9504  164.5021 F       1  UNL1       -0.1659
     32 F         143.8017  137.8725  166.6594 F       1  UNL1       -0.1659
@<TRIPOS>BOND
     1     3     4    1
     2     4     5    1
     3     5     6    1
     4     6     7    1
     5     7     2    1
     6     2     1    1
     7     1    17    1
     8    17    18    1
     9    18    19   ar
    10    19    20   ar
    11    20    29    1
    12    29    30    1
    13    29    31    1
    14    29    32    1
    15    20    21   ar
    16    21    22   ar
    17    22    24    1
    18    24    25    1
    19    25    26    1
    20    26    27    1
    21    26    28    1
    22    22    23   ar
    23     7    10    1
    24    10    11   ar
    25    11    12   ar
    26    12    13   ar
    27    13    14    1
    28    13    15   ar
    29    15    16   ar
    30     7     8    1
    31     8     9    1
    32     9     4    1
    33    23    18   ar
    34    16    10   ar
    35    26    24    1
@<TRIPOS>MOLECULE
*****
 32 35 0 0 0
SMALL
GASTEIGER

@<TRIPOS>ATOM
      1 O         139.5105  142.1005  162.5000 O.3     1  UNL1       -0.3470
      2 C         140.4586  140.9440  162.3837 C.3     1  UNL1        0.1467
      3 C         143.9092  142.9412  158.2671 C.3     1  UNL1        0.0896
      4 N         143.2201  142.3473  159.4597 N.3     1  UNL1       -0.2715
      5 C         144.0280  141.7276  160.5612 C.3     1  UNL1        0.0725
      6 C         143.3389  141.1337  161.7538 C.3     1  UNL1        0.0238
      7 C         141.8419  141.1594  161.8450 C.3     1  UNL1        0.0489
      8 C         141.0340  141.7791  160.7435 C.3     1  UNL1        0.0238
      9 C         141.7232  142.3730  159.5509 C.3     1  UNL1        0.0725
     10 C         142.1694  140.4649  163.1336 C.ar    1  UNL1       -0.0202
     11 C         141.5346  139.1448  163.4565 C.ar    1  UNL1       -0.0019
     12 C         141.8621  138.4503  164.7450 C.ar    1  UNL1        0.0293
     13 C         142.8243  139.0759  165.7107 C.ar    1  UNL1        0.1401
     14 F         143.1518  138.3814  166.9993 F       1  UNL1       -0.2042
     15 C         143.4592  140.3961  165.3879 C.ar    1  UNL1        0.0293
     16 C         143.1317  141.0906  164.0993 C.ar    1  UNL1       -0.0019
     17 C         138.6773  142.2658  163.7363 C.3     1  UNL1        0.1874
     18 C         138.9912  141.4646  164.9649 C.ar    1  UNL1        0.0883
     19 C         138.2991  140.1554  165.2037 C.ar    1  UNL1        0.0211
     20 C         138.6131  139.3543  166.4323 C.ar    1  UNL1        0.0738
     21 C         139.6191  139.8622  167.4222 C.ar    1  UNL1        0.0186
     22 C         140.3112  141.1715  167.1835 C.ar    1  UNL1        0.0583
     23 N         139.9972  141.9727  165.9548 N.ar    1  UNL1       -0.2515
     24 C         141.3172  141.6795  168.1733 C.3     1  UNL1        0.0403
     25 C         142.6899  141.6233  168.7755 C.3     1  UNL1        0.0063
     26 C         141.6871  142.6153  169.2857 C.3     1  UNL1        0.0056
     27 C         142.5037  143.2879  170.3491 C.3     1  UNL1        0.0004
     28 C         140.4006  143.3738  169.4265 C.3     1  UNL1        0.0004
     29 C         137.9210  138.0450  166.6712 C.3     1  UNL1        0.4187
     30 F         137.2290  136.7358  166.9099 F       1  UNL1       -0.1659
     31 F         138.6408  137.4504  165.4970 F       1  UNL1       -0.1659
     32 F         137.2013  138.6396  167.8453 F       1  UNL1       -0.1659
@<TRIPOS>BOND
     1     3     4    1
     2     4     5    1
     3     5     6    1
     4     6     7    1
     5     7     2    1
     6     2     1    1
     7     1    17    1
     8    17    18    1
     9    18    19   ar
    10    19    20   ar
    11    20    29    1
    12    29    30    1
    13    29    31    1
    14    29    32    1
    15    20    21   ar
    16    21    22   ar
    17    22    24    1
    18    24    25    1
    19    25    26    1
    20    26    27    1
    21    26    28    1
    22    22    23   ar
    23     7    10    1
    24    10    11   ar
    25    11    12   ar
    26    12    13   ar
    27    13    14    1
    28    13    15   ar
    29    15    16   ar
    30     7     8    1
    31     8     9    1
    32     9     4    1
    33    23    18   ar
    34    16    10   ar
    35    26    24    1
@<TRIPOS>MOLECULE
*****
 32 35 0 0 0
SMALL
GASTEIGER

@<TRIPOS>ATOM
      1 O         142.6253  138.5223  163.2955 O.3     1  UNL1       -0.3470
      2 C         141.2656  137.8978  163.1907 C.3     1  UNL1        0.1467
      3 C         139.6755  139.4461  157.9071 C.3     1  UNL1        0.0896
      4 N         139.8636  139.1257  159.3603 N.3     1  UNL1       -0.2715
      5 C         138.7700  139.4255  160.3421 C.3     1  UNL1        0.0725
      6 C         138.9581  139.1050  161.7954 C.3     1  UNL1        0.0238
      7 C         140.2399  138.4848  162.2668 C.3     1  UNL1        0.0489
      8 C         141.3335  138.1850  161.2850 C.3     1  UNL1        0.0238
      9 C         141.1454  138.5054  159.8318 C.3     1  UNL1        0.0725
     10 C         139.5024  138.5807  163.5695 C.ar    1  UNL1       -0.0202
     11 C         138.8638  139.8756  163.9763 C.ar    1  UNL1       -0.0019
     12 C         138.1264  139.9716  165.2789 C.ar    1  UNL1        0.0293
     13 C         138.0275  138.7727  166.1748 C.ar    1  UNL1        0.1401
     14 F         137.2900  138.8686  167.4775 F       1  UNL1       -0.2042
     15 C         138.6660  137.4777  165.7681 C.ar    1  UNL1        0.0293
     16 C         139.4035  137.3818  164.4654 C.ar    1  UNL1       -0.0019
     17 C         143.0517  139.1808  164.5740 C.3     1  UNL1        0.1874
     18 C         142.2711  140.3410  165.1167 C.ar    1  UNL1        0.0883
     19 C         141.6418  140.2517  166.4754 C.ar    1  UNL1        0.0211
     20 C         140.8611  141.4119  167.0180 C.ar    1  UNL1        0.0738
     21 C         140.7097  142.6614  166.2021 C.ar    1  UNL1        0.0186
     22 C         141.3390  142.7507  164.8433 C.ar    1  UNL1        0.0583
     23 N         142.1197  141.5905  164.3006 N.ar    1  UNL1       -0.2515
     24 C         141.1876  144.0002  164.0274 C.3     1  UNL1        0.0403
     25 C         141.7173  145.3291  163.5761 C.3     1  UNL1        0.0063
     26 C         140.3960  144.8356  163.0654 C.3     1  UNL1        0.0056
     27 C         140.0175  145.9804  162.1731 C.3     1  UNL1        0.0004
     28 C         139.2062  143.9444  162.8646 C.3     1  UNL1        0.0004
     29 C         140.2318  141.3227  168.3768 C.3     1  UNL1        0.4187
     30 F         139.6025  141.2336  169.7354 F       1  UNL1       -0.1659
     31 F         140.1969  142.8201  168.4588 F       1  UNL1       -0.1659
     32 F         140.2667  139.8254  168.2946 F       1  UNL1       -0.1659
@<TRIPOS>BOND
     1     3     4    1
     2     4     5    1
     3     5     6    1
     4     6     7    1
     5     7     2    1
     6     2     1    1
     7     1    17    1
     8    17    18    1
     9    18    19   ar
    10    19    20   ar
    11    20    29    1
    12    29    30    1
    13    29    31    1
    14    29    32    1
    15    20    21   ar
    16    21    22   ar
    17    22    24    1
    18    24    25    1
    19    25    26    1
    20    26    27    1
    21    26    28    1
    22    22    23   ar
    23     7    10    1
    24    10    11   ar
    25    11    12   ar
    26    12    13   ar
    27    13    14    1
    28    13    15   ar
    29    15    16   ar
    30     7     8    1
    31     8     9    1
    32     9     4    1
    33    23    18   ar
    34    16    10   ar
    35    26    24    1
@<TRIPOS>MOLECULE
*****
 32 35 0 0 0
SMALL
GASTEIGER

@<TRIPOS>ATOM
      1 O         138.4723  138.6274  164.4584 O.3     1  UNL1       -0.3470
      2 C         138.0467  139.8216  163.6567 C.3     1  UNL1        0.1467
      3 C         140.2937  138.4641  158.5625 C.3     1  UNL1        0.0896
      4 N         139.8030  139.0493  159.8535 N.3     1  UNL1       -0.2715
      5 C         140.0949  140.4825  160.1862 C.3     1  UNL1        0.0725
      6 C         139.6042  141.0678  161.4772 C.3     1  UNL1        0.0238
      7 C         138.8215  140.2198  162.4355 C.3     1  UNL1        0.0489
      8 C         138.5296  138.7867  162.1028 C.3     1  UNL1        0.0238
      9 C         139.0203  138.2014  160.8118 C.3     1  UNL1        0.0725
     10 C         138.8444  141.5148  163.1923 C.ar    1  UNL1       -0.0202
     11 C         137.5754  142.0691  163.7687 C.ar    1  UNL1       -0.0019
     12 C         137.5982  143.3640  164.5255 C.ar    1  UNL1        0.0293
     13 C         138.8901  144.1045  164.7058 C.ar    1  UNL1        0.1401
     14 F         138.9130  145.3994  165.4626 F       1  UNL1       -0.2042
     15 C         140.1592  143.5502  164.1294 C.ar    1  UNL1        0.0293
     16 C         140.1363  142.2553  163.3726 C.ar    1  UNL1       -0.0019
     17 C         138.9248  138.7998  165.8781 C.3     1  UNL1        0.1874
     18 C         139.9961  139.7965  166.2080 C.ar    1  UNL1        0.0883
     19 C         139.7695  140.8108  167.2897 C.ar    1  UNL1        0.0211
     20 C         140.8408  141.8075  167.6195 C.ar    1  UNL1        0.0738
     21 C         142.1387  141.7900  166.8678 C.ar    1  UNL1        0.0186
     22 C         142.3654  140.7757  165.7861 C.ar    1  UNL1        0.0583
     23 N         141.2941  139.7789  165.4562 N.ar    1  UNL1       -0.2515
     24 C         143.6633  140.7582  165.0344 C.3     1  UNL1        0.0403
     25 C         144.8411  140.0029  164.4936 C.3     1  UNL1        0.0063
     26 C         144.7335  141.4828  164.2732 C.3     1  UNL1        0.0056
     27 C         145.9931  141.7224  163.4946 C.3     1  UNL1        0.0004
     28 C         144.1884  142.8794  164.3232 C.3     1  UNL1        0.0004
     29 C         140.6142  142.8219  168.7011 C.3     1  UNL1        0.4187
     30 F         140.3877  143.8362  169.7826 F       1  UNL1       -0.1659
     31 F         139.9518  143.7315  167.7092 F       1  UNL1       -0.1659
     32 F         141.2767  141.9122  169.6929 F       1  UNL1       -0.1659
@<TRIPOS>BOND
     1     3     4    1
     2     4     5    1
     3     5     6    1
     4     6     7    1
     5     7     2    1
     6     2     1    1
     7     1    17    1
     8    17    18    1
     9    18    19   ar
    10    19    20   ar
    11    20    29    1
    12    29    30    1
    13    29    31    1
    14    29    32    1
    15    20    21   ar
    16    21    22   ar
    17    22    24    1
    18    24    25    1
    19    25    26    1
    20    26    27    1
    21    26    28    1
    22    22    23   ar
    23     7    10    1
    24    10    11   ar
    25    11    12   ar
    26    12    13   ar
    27    13    14    1
    28    13    15   ar
    29    15    16   ar
    30     7     8    1
    31     8     9    1
    32     9     4    1
    33    23    18   ar
    34    16    10   ar
    35    26    24    1
@<TRIPOS>MOLECULE
*****
 32 35 0 0 0
SMALL
GASTEIGER

@<TRIPOS>ATOM
      1 O         141.7764  137.9708  162.4036 O.3     1  UNL1       -0.3470
      2 C         140.3203  137.7645  162.6989 C.3     1  UNL1        0.1467
      3 C         138.0492  140.5131  158.2123 C.3     1  UNL1        0.0896
      4 N         138.4663  139.9132  159.5223 N.3     1  UNL1       -0.2715
      5 C         137.7312  140.2723  160.7796 C.3     1  UNL1        0.0725
      6 C         138.1482  139.6723  162.0896 C.3     1  UNL1        0.0238
      7 C         139.3004  138.7133  162.1424 C.3     1  UNL1        0.0489
      8 C         140.0354  138.3542  160.8851 C.3     1  UNL1        0.0238
      9 C         139.6184  138.9542  159.5751 C.3     1  UNL1        0.0725
     10 C         138.9195  138.7429  163.5929 C.ar    1  UNL1       -0.0202
     11 C         138.8698  137.4679  164.3815 C.ar    1  UNL1       -0.0019
     12 C         138.4889  137.4974  165.8320 C.ar    1  UNL1        0.0293
     13 C         138.1577  138.8020  166.4939 C.ar    1  UNL1        0.1401
     14 F         137.7767  138.8316  167.9445 F       1  UNL1       -0.2042
     15 C         138.2073  140.0771  165.7055 C.ar    1  UNL1        0.0293
     16 C         138.5882  140.0475  164.2549 C.ar    1  UNL1       -0.0019
     17 C         142.7161  138.3660  163.5040 C.3     1  UNL1        0.1874
     18 C         142.3406  139.4662  164.4519 C.ar    1  UNL1        0.0883
     19 C         142.1619  140.8660  163.9432 C.ar    1  UNL1        0.0211
     20 C         141.7865  141.9662  164.8911 C.ar    1  UNL1        0.0738
     21 C         141.5897  141.6667  166.3477 C.ar    1  UNL1        0.0186
     22 C         141.7684  140.2669  166.8564 C.ar    1  UNL1        0.0583
     23 N         142.1439  139.1666  165.9085 N.ar    1  UNL1       -0.2515
     24 C         141.5716  139.9674  168.3129 C.3     1  UNL1        0.0403
     25 C         142.0167  139.2793  169.5693 C.3     1  UNL1        0.0063
     26 C         140.7859  140.1366  169.5794 C.3     1  UNL1        0.0056
     27 C         140.3784  139.9905  171.0156 C.3     1  UNL1        0.0004
     28 C         139.6965  141.0446  169.0906 C.3     1  UNL1        0.0004
     29 C         141.6078  143.3660  164.3825 C.3     1  UNL1        0.4187
     30 F         141.4291  144.7658  163.8739 F       1  UNL1       -0.1659
     31 F         143.0845  143.5990  164.5052 F       1  UNL1       -0.1659
     32 F         140.1311  143.1329  164.2599 F       1  UNL1       -0.1659
@<TRIPOS>BOND
     1     3     4    1
     2     4     5    1
     3     5     6    1
     4     6     7    1
     5     7     2    1
     6     2     1    1
     7     1    17    1
     8    17    18    1
     9    18    19   ar
    10    19    20   ar
    11    20    29    1
    12    29    30    1
    13    29    31    1
    14    29    32    1
    15    20    21   ar
    16    21    22   ar
    17    22    24    1
    18    24    25    1
    19    25    26    1
    20    26    27    1
    21    26    28    1
    22    22    23   ar
    23     7    10    1
    24    10    11   ar
    25    11    12   ar
    26    12    13   ar
    27    13    14    1
    28    13    15   ar
    29    15    16   ar
    30     7     8    1
    31     8     9    1
    32     9     4    1
    33    23    18   ar
    34    16    10   ar
    35    26    24    1
@<TRIPOS>MOLECULE
*****
 32 35 0 0 0
SMALL
GASTEIGER

@<TRIPOS>ATOM
      1 O         143.3910  140.8792  165.5604 O.3     1  UNL1       -0.3470
      2 C         142.5363  139.7194  165.9779 C.3     1  UNL1        0.1467
      3 C         140.9816  141.4830  171.2043 C.3     1  UNL1        0.0896
      4 N         141.1448  140.9582  169.8086 N.3     1  UNL1       -0.2715
      5 C         139.9602  140.4087  169.0706 C.3     1  UNL1        0.0725
      6 C         140.1235  139.8838  167.6750 C.3     1  UNL1        0.0238
      7 C         141.4714  139.9084  167.0173 C.3     1  UNL1        0.0489
      8 C         142.6560  140.4579  167.7553 C.3     1  UNL1        0.0238
      9 C         142.4927  140.9828  169.1510 C.3     1  UNL1        0.0725
     10 C         140.6565  139.2933  165.9183 C.ar    1  UNL1       -0.0202
     11 C         139.2741  139.8016  165.6351 C.ar    1  UNL1       -0.0019
     12 C         138.4592  139.1865  164.5362 C.ar    1  UNL1        0.0293
     13 C         139.0270  138.0630  163.7205 C.ar    1  UNL1        0.1401
     14 F         138.2121  137.4479  162.6215 F       1  UNL1       -0.2042
     15 C         140.4095  137.5546  164.0036 C.ar    1  UNL1        0.0293
     16 C         141.2243  138.1698  165.1026 C.ar    1  UNL1       -0.0019
     17 C         143.1101  141.5920  164.2708 C.3     1  UNL1        0.1874
     18 C         141.7071  141.9972  163.9281 C.ar    1  UNL1        0.0883
     19 C         140.9936  143.0143  164.7688 C.ar    1  UNL1        0.0211
     20 C         139.5907  143.4194  164.4260 C.ar    1  UNL1        0.0738
     21 C         138.9012  142.8076  163.2427 C.ar    1  UNL1        0.0186
     22 C         139.6147  141.7906  162.4020 C.ar    1  UNL1        0.0583
     23 N         141.0176  141.3854  162.7447 N.ar    1  UNL1       -0.2515
     24 C         138.9251  141.1788  161.2187 C.3     1  UNL1        0.0403
     25 C         138.1128  140.0695  160.6189 C.3     1  UNL1        0.0063
     26 C         138.5431  141.2283  159.7690 C.3     1  UNL1        0.0056
     27 C         137.9387  140.8269  158.4561 C.3     1  UNL1        0.0004
     28 C         139.1833  142.5264  159.3752 C.3     1  UNL1        0.0004
     29 C         138.8771  144.4365  165.2666 C.3     1  UNL1        0.4187
     30 F         138.1635  145.4534  166.1071 F       1  UNL1       -0.1659
     31 F         138.1066  144.8910  164.0625 F       1  UNL1       -0.1659
     32 F         139.6476  143.9819  166.4706 F       1  UNL1       -0.1659
@<TRIPOS>BOND
     1     3     4    1
     2     4     5    1
     3     5     6    1
     4     6     7    1
     5     7     2    1
     6     2     1    1
     7     1    17    1
     8    17    18    1
     9    18    19   ar
    10    19    20   ar
    11    20    29    1
    12    29    30    1
    13    29    31    1
    14    29    32    1
    15    20    21   ar
    16    21    22   ar
    17    22    24    1
    18    24    25    1
    19    25    26    1
    20    26    27    1
    21    26    28    1
    22    22    23   ar
    23     7    10    1
    24    10    11   ar
    25    11    12   ar
    26    12    13   ar
    27    13    14    1
    28    13    15   ar
    29    15    16   ar
    30     7     8    1
    31     8     9    1
    32     9     4    1
    33    23    18   ar
    34    16    10   ar
    35    26    24    1
