@<TRIPOS>MOLECULE
*****
 38 41 0 0 0
SMALL
GASTEIGER

@<TRIPOS>ATOM
      1 C         141.8862  143.1688  161.9882 C.3     1  UNL1        0.1102
      2 C         140.5717  143.7280  162.4457 C.3     1  UNL1        0.0296
      3 C         139.6499  142.8895  163.2809 C.3     1  UNL1        0.0730
      4 N         140.0427  141.4920  163.6585 N.3     1  UNL1       -0.2691
      5 C         141.3573  140.9329  163.2009 C.3     1  UNL1        0.0730
      6 C         142.2790  141.7712  162.3658 C.3     1  UNL1        0.0296
      7 C         143.2259  143.0849  161.3188 C.2     1  UNL1        0.3177
      8 O         144.3573  143.9474  161.7943 O.2     1  UNL1       -0.2501
      9 C         144.5420  142.3814  159.1920 C.3     1  UNL1        0.2556
     10 O         143.4343  142.1385  160.1738 O.3     1  UNL1       -0.4444
     11 C         141.9587  144.5372  161.3781 C.3     1  UNL1        0.1002
     12 N         141.9942  144.6925  159.8866 N.am    1  UNL1       -0.3003
     13 C         140.8401  145.3299  159.1712 C.2     1  UNL1        0.2461
     14 O         139.6504  145.8119  159.9474 O.2     1  UNL1       -0.2701
     15 H         142.7750  144.3761  159.3772 H       1  UNL1        0.1498
     16 C         140.8755  145.4852  157.6797 C.ar    1  UNL1        0.0594
     17 C         141.7150  144.5603  156.8491 C.ar    1  UNL1        0.0416
     18 C         141.7505  144.7155  155.3577 C.ar    1  UNL1        0.1419
     19 C         140.9465  145.7957  154.6967 C.ar    1  UNL1        0.0738
     20 C         140.1070  146.7206  155.5273 C.ar    1  UNL1        0.1419
     21 C         140.0715  146.5654  157.0188 C.ar    1  UNL1        0.0416
     22 O         142.5899  143.7906  154.5270 O.3     1  UNL1       -0.4713
     23 C         143.8790  143.2530  155.0741 C.3     1  UNL1        0.2525
     24 O         139.3031  147.8008  154.8664 O.3     1  UNL1       -0.4713
     25 C         139.9433  148.6944  153.8458 C.3     1  UNL1        0.2525
     26 C         139.1210  140.6537  164.4936 C.3     1  UNL1        0.0982
     27 C         139.3176  140.5749  165.9786 C.2     1  UNL1        0.0075
     28 C         140.2292  141.5469  166.6671 C.2     1  UNL1       -0.0009
     29 C         140.4258  141.4682  168.1521 C.ar    1  UNL1        0.0335
     30 C         141.3374  142.4402  168.8406 C.ar    1  UNL1        0.0030
     31 C         141.5339  142.3614  170.3255 C.ar    1  UNL1        0.0002
     32 C         140.8188  141.3106  171.1220 C.ar    1  UNL1        0.0031
     33 C         139.9072  140.3386  170.4336 C.ar    1  UNL1        0.0369
     34 C         139.7107  140.4174  168.9486 C.ar    1  UNL1        0.1385
     35 O         138.7990  139.4453  168.2601 O.3     1  UNL1       -0.4788
     36 C         138.6025  139.5241  166.7751 C.3     1  UNL1        0.1496
     37 C         138.0966  139.1987  165.4010 C.3     1  UNL1        0.0480
     38 C         137.7117  138.3603  167.0944 C.3     1  UNL1        0.0480
@<TRIPOS>BOND
     1     9    10    1
     2    10     7    1
     3     7     8    2
     4     7     1    1
     5     1    11    1
     6    11    12    1
     7    12    13   am
     8    13    14    2
     9    13    16    1
    10    16    17   ar
    11    17    18   ar
    12    18    22    1
    13    22    23    1
    14    18    19   ar
    15    19    20   ar
    16    20    24    1
    17    24    25    1
    18    20    21   ar
    19     1     2    1
    20     2     3    1
    21     3     4    1
    22     4    26    1
    23    26    27    1
    24    27    28    2
    25    28    29    1
    26    29    30   ar
    27    30    31   ar
    28    31    32   ar
    29    32    33   ar
    30    33    34   ar
    31    34    35    1
    32    35    36    1
    33    36    37    1
    34    36    38    1
    35     4     5    1
    36     5     6    1
    37     6     1    1
    38    21    16   ar
    39    36    27    1
    40    34    29   ar
    41    12    15    1
@<TRIPOS>MOLECULE
*****
 38 41 0 0 0
SMALL
GASTEIGER

@<TRIPOS>ATOM
      1 C         142.0948  142.9616  161.9900 C.3     1  UNL1        0.1102
      2 C         140.7777  143.4388  162.5262 C.3     1  UNL1        0.0296
      3 C         139.9296  142.5218  163.3569 C.3     1  UNL1        0.0730
      4 N         140.3986  141.1278  163.6514 N.3     1  UNL1       -0.2691
      5 C         141.7157  140.6507  163.1152 C.3     1  UNL1        0.0730
      6 C         142.5638  141.5675  162.2845 C.3     1  UNL1        0.0296
      7 C         143.4074  142.9695  161.2640 C.2     1  UNL1        0.3177
      8 O         144.5188  143.8607  161.7336 O.2     1  UNL1       -0.2501
      9 C         144.6722  142.4153  159.0633 C.3     1  UNL1        0.2556
     10 O         143.6085  142.0863  160.0684 O.3     1  UNL1       -0.4444
     11 C         142.0817  144.3584  161.4434 C.3     1  UNL1        0.1002
     12 N         142.0795  144.5834  159.9605 N.am    1  UNL1       -0.3003
     13 C         140.8499  145.1129  159.2840 C.2     1  UNL1        0.2461
     14 O         139.6223  145.4173  160.0906 O.2     1  UNL1       -0.2701
     15 H         142.8852  144.3836  159.4311 H       1  UNL1        0.1498
     16 C         140.8476  145.3380  157.8010 C.ar    1  UNL1        0.0594
     17 C         140.0843  146.4904  157.2185 C.ar    1  UNL1        0.0416
     18 C         140.0820  146.7156  155.7355 C.ar    1  UNL1        0.1419
     19 C         140.8431  145.7884  154.8350 C.ar    1  UNL1        0.0738
     20 C         141.6064  144.6359  155.4175 C.ar    1  UNL1        0.1419
     21 C         141.6087  144.4108  156.9004 C.ar    1  UNL1        0.0416
     22 O         139.3187  147.8680  155.1531 O.3     1  UNL1       -0.4713
     23 C         139.8653  148.6073  153.9679 C.3     1  UNL1        0.2525
     24 O         142.3674  143.7087  154.5169 O.3     1  UNL1       -0.4713
     25 C         143.8156  143.4240  154.7847 C.3     1  UNL1        0.2525
     26 C         139.5505  140.2110  164.4820 C.3     1  UNL1        0.0982
     27 C         139.6447  140.2525  165.9785 C.2     1  UNL1        0.0075
     28 C         140.6687  141.1254  166.6416 C.2     1  UNL1       -0.0009
     29 C         140.7629  141.1669  168.1381 C.ar    1  UNL1        0.0335
     30 C         141.7869  142.0398  168.8011 C.ar    1  UNL1        0.0030
     31 C         141.8811  142.0813  170.2976 C.ar    1  UNL1        0.0002
     32 C         140.9514  141.2500  171.1309 C.ar    1  UNL1        0.0031
     33 C         139.9274  140.3771  170.4679 C.ar    1  UNL1        0.0369
     34 C         139.8332  140.3356  168.9715 C.ar    1  UNL1        0.1385
     35 O         138.8092  139.4627  168.3084 O.3     1  UNL1       -0.4788
     36 C         138.7150  139.4212  166.8119 C.3     1  UNL1        0.1496
     37 C         138.2407  139.0457  165.4394 C.3     1  UNL1        0.0480
     38 C         137.6206  138.4595  167.1686 C.3     1  UNL1        0.0480
@<TRIPOS>BOND
     1     9    10    1
     2    10     7    1
     3     7     8    2
     4     7     1    1
     5     1    11    1
     6    11    12    1
     7    12    13   am
     8    13    14    2
     9    13    16    1
    10    16    17   ar
    11    17    18   ar
    12    18    22    1
    13    22    23    1
    14    18    19   ar
    15    19    20   ar
    16    20    24    1
    17    24    25    1
    18    20    21   ar
    19     1     2    1
    20     2     3    1
    21     3     4    1
    22     4    26    1
    23    26    27    1
    24    27    28    2
    25    28    29    1
    26    29    30   ar
    27    30    31   ar
    28    31    32   ar
    29    32    33   ar
    30    33    34   ar
    31    34    35    1
    32    35    36    1
    33    36    37    1
    34    36    38    1
    35     4     5    1
    36     5     6    1
    37     6     1    1
    38    21    16   ar
    39    36    27    1
    40    34    29   ar
    41    12    15    1
@<TRIPOS>MOLECULE
*****
 38 41 0 0 0
SMALL
GASTEIGER

@<TRIPOS>ATOM
      1 C         143.6396  139.2762  161.1812 C.3     1  UNL1        0.1102
      2 C         143.2318  137.8584  160.9105 C.3     1  UNL1        0.0296
      3 C         142.9529  137.4134  159.5054 C.3     1  UNL1        0.0730
      4 N         143.0820  138.3862  158.3710 N.3     1  UNL1       -0.2691
      5 C         143.4898  139.8041  158.6417 C.3     1  UNL1        0.0730
      6 C         143.7687  140.2491  160.0467 C.3     1  UNL1        0.0296
      7 C         144.0525  140.5043  161.9369 C.2     1  UNL1        0.3177
      8 O         143.2357  141.7583  161.8340 O.2     1  UNL1       -0.2501
      9 C         145.7577  141.7352  163.4625 C.3     1  UNL1        0.2556
     10 O         145.2821  140.4786  162.7957 O.3     1  UNL1       -0.4444
     11 C         143.6540  138.7299  162.5781 C.3     1  UNL1        0.1002
     12 N         142.5409  139.0650  163.5260 N.am    1  UNL1       -0.3003
     13 C         142.7933  139.0783  165.0045 C.2     1  UNL1        0.2461
     14 O         144.1589  138.7563  165.5351 O.2     1  UNL1       -0.2701
     15 H         141.6446  139.2764  163.1777 H       1  UNL1        0.1498
     16 C         141.6803  139.4135  165.9525 C.ar    1  UNL1        0.0594
     17 C         141.9582  140.2392  167.1736 C.ar    1  UNL1        0.0416
     18 C         140.8453  140.5744  168.1216 C.ar    1  UNL1        0.1419
     19 C         139.4542  140.0840  167.8486 C.ar    1  UNL1        0.0738
     20 C         139.1763  139.2583  166.6275 C.ar    1  UNL1        0.1419
     21 C         140.2892  138.9230  165.6795 C.ar    1  UNL1        0.0416
     22 O         141.1232  141.4002  169.3427 O.3     1  UNL1       -0.4713
     23 C         139.9877  141.8867  170.1935 C.3     1  UNL1        0.2525
     24 O         137.7852  138.7678  166.3546 O.3     1  UNL1       -0.4713
     25 C         137.1097  137.8482  167.3281 C.3     1  UNL1        0.2525
     26 C         142.8031  137.9412  156.9660 C.3     1  UNL1        0.0982
     27 C         142.6236  136.4832  156.6627 C.2     1  UNL1        0.0075
     28 C         143.5503  135.4714  157.2688 C.2     1  UNL1       -0.0009
     29 C         143.3707  134.0133  156.9655 C.ar    1  UNL1        0.0335
     30 C         144.2975  133.0015  157.5716 C.ar    1  UNL1        0.0030
     31 C         144.1179  131.5435  157.2683 C.ar    1  UNL1        0.0002
     32 C         143.0115  131.0974  156.3590 C.ar    1  UNL1        0.0031
     33 C         142.0848  132.1092  155.7529 C.ar    1  UNL1        0.0369
     34 C         142.2644  133.5671  156.0562 C.ar    1  UNL1        0.1385
     35 O         141.3376  134.5790  155.4500 O.3     1  UNL1       -0.4788
     36 C         141.5172  136.0370  155.7533 C.3     1  UNL1        0.1496
     37 C         141.2846  137.5188  155.7391 C.3     1  UNL1        0.0480
     38 C         140.3301  136.1054  154.8390 C.3     1  UNL1        0.0480
@<TRIPOS>BOND
     1     9    10    1
     2    10     7    1
     3     7     8    2
     4     7     1    1
     5     1    11    1
     6    11    12    1
     7    12    13   am
     8    13    14    2
     9    13    16    1
    10    16    17   ar
    11    17    18   ar
    12    18    22    1
    13    22    23    1
    14    18    19   ar
    15    19    20   ar
    16    20    24    1
    17    24    25    1
    18    20    21   ar
    19     1     2    1
    20     2     3    1
    21     3     4    1
    22     4    26    1
    23    26    27    1
    24    27    28    2
    25    28    29    1
    26    29    30   ar
    27    30    31   ar
    28    31    32   ar
    29    32    33   ar
    30    33    34   ar
    31    34    35    1
    32    35    36    1
    33    36    37    1
    34    36    38    1
    35     4     5    1
    36     5     6    1
    37     6     1    1
    38    21    16   ar
    39    36    27    1
    40    34    29   ar
    41    12    15    1
@<TRIPOS>MOLECULE
*****
 38 41 0 0 0
SMALL
GASTEIGER

@<TRIPOS>ATOM
      1 C         143.2690  139.2511  159.0751 C.3     1  UNL1        0.1102
      2 C         142.7059  138.0661  159.8022 C.3     1  UNL1        0.0296
      3 C         142.8837  137.9430  161.2866 C.3     1  UNL1        0.0730
      4 N         143.6246  139.0049  162.0438 N.3     1  UNL1       -0.2691
      5 C         144.1877  140.1899  161.3167 C.3     1  UNL1        0.0730
      6 C         144.0100  140.3130  159.8324 C.3     1  UNL1        0.0296
      7 C         143.6168  140.1792  157.9492 C.2     1  UNL1        0.3177
      8 O         143.2614  141.6337  158.0393 O.2     1  UNL1       -0.2501
      9 C         145.4072  140.4595  156.0876 C.3     1  UNL1        0.2556
     10 O         144.3199  139.6528  156.7332 O.3     1  UNL1       -0.4444
     11 C         142.6489  138.5115  157.9269 C.3     1  UNL1        0.1002
     12 N         142.7232  137.0144  157.8713 N.am    1  UNL1       -0.3003
     13 C         142.6333  136.3075  156.5514 C.2     1  UNL1        0.2461
     14 O         142.4691  137.0977  155.2870 O.2     1  UNL1       -0.2701
     15 H         142.8309  136.4958  158.7012 H       1  UNL1        0.1498
     16 C         142.7075  134.8104  156.4958 C.ar    1  UNL1        0.0594
     17 C         143.7622  134.0823  157.2753 C.ar    1  UNL1        0.0416
     18 C         143.8365  132.5852  157.2198 C.ar    1  UNL1        0.1419
     19 C         142.8562  131.8161  156.3846 C.ar    1  UNL1        0.0738
     20 C         141.8016  132.5442  155.6050 C.ar    1  UNL1        0.1419
     21 C         141.7272  134.0413  155.6606 C.ar    1  UNL1        0.0416
     22 O         144.8912  131.8571  157.9993 O.3     1  UNL1       -0.4713
     23 C         144.7932  130.3723  158.1881 C.3     1  UNL1        0.2525
     24 O         140.8213  131.7751  154.7699 O.3     1  UNL1       -0.4713
     25 C         140.8950  130.2779  154.7150 C.3     1  UNL1        0.2525
     26 C         143.8024  138.8819  163.5281 C.3     1  UNL1        0.0982
     27 C         142.6344  139.0991  164.4439 C.2     1  UNL1        0.0075
     28 C         141.4491  138.1822  164.3782 C.2     1  UNL1       -0.0009
     29 C         140.2811  138.3995  165.2940 C.ar    1  UNL1        0.0335
     30 C         139.0958  137.4826  165.2283 C.ar    1  UNL1        0.0030
     31 C         137.9279  137.6999  166.1441 C.ar    1  UNL1        0.0002
     32 C         137.9453  138.8340  167.1257 C.ar    1  UNL1        0.0031
     33 C         139.1306  139.7508  167.1914 C.ar    1  UNL1        0.0369
     34 C         140.2985  139.5336  166.2756 C.ar    1  UNL1        0.1385
     35 O         141.4839  140.4505  166.3413 O.3     1  UNL1       -0.4788
     36 C         142.6518  140.2332  165.4255 C.3     1  UNL1        0.1496
     37 C         143.9868  140.4340  164.7717 C.3     1  UNL1        0.0480
     38 C         143.1329  141.4370  166.1800 C.3     1  UNL1        0.0480
@<TRIPOS>BOND
     1     9    10    1
     2    10     7    1
     3     7     8    2
     4     7     1    1
     5     1    11    1
     6    11    12    1
     7    12    13   am
     8    13    14    2
     9    13    16    1
    10    16    17   ar
    11    17    18   ar
    12    18    22    1
    13    22    23    1
    14    18    19   ar
    15    19    20   ar
    16    20    24    1
    17    24    25    1
    18    20    21   ar
    19     1     2    1
    20     2     3    1
    21     3     4    1
    22     4    26    1
    23    26    27    1
    24    27    28    2
    25    28    29    1
    26    29    30   ar
    27    30    31   ar
    28    31    32   ar
    29    32    33   ar
    30    33    34   ar
    31    34    35    1
    32    35    36    1
    33    36    37    1
    34    36    38    1
    35     4     5    1
    36     5     6    1
    37     6     1    1
    38    21    16   ar
    39    36    27    1
    40    34    29   ar
    41    12    15    1
@<TRIPOS>MOLECULE
*****
 38 41 0 0 0
SMALL
GASTEIGER

@<TRIPOS>ATOM
      1 C         140.3684  139.2478  157.2856 C.3     1  UNL1        0.1102
      2 C         141.1628  139.5365  158.5249 C.3     1  UNL1        0.0296
      3 C         140.5793  140.3971  159.6062 C.3     1  UNL1        0.0730
      4 N         139.2016  140.9688  159.4482 N.3     1  UNL1       -0.2691
      5 C         138.4073  140.6800  158.2090 C.3     1  UNL1        0.0730
      6 C         138.9906  139.8195  157.1277 C.3     1  UNL1        0.0296
      7 C         140.0093  138.6936  155.9389 C.2     1  UNL1        0.3177
      8 O         140.8734  138.9930  154.7499 O.2     1  UNL1       -0.2501
      9 C         138.4395  137.2668  154.4389 C.3     1  UNL1        0.2556
     10 O         138.7859  137.8400  155.7810 O.3     1  UNL1       -0.4444
     11 C         141.6214  138.4836  156.9759 C.3     1  UNL1        0.1002
     12 N         141.5849  136.9865  156.8897 N.am    1  UNL1       -0.3003
     13 C         142.8060  136.2302  156.4572 C.2     1  UNL1        0.2461
     14 O         144.0636  136.9710  156.1110 O.2     1  UNL1       -0.2701
     15 H         140.7596  136.5004  157.1169 H       1  UNL1        0.1498
     16 C         142.7696  134.7331  156.3710 C.ar    1  UNL1        0.0594
     17 C         141.7798  134.0578  155.4685 C.ar    1  UNL1        0.0416
     18 C         141.7434  132.5608  155.3822 C.ar    1  UNL1        0.1419
     19 C         142.6966  131.7390  156.1984 C.ar    1  UNL1        0.0738
     20 C         143.6863  132.4144  157.1008 C.ar    1  UNL1        0.1419
     21 C         143.7228  133.9114  157.1871 C.ar    1  UNL1        0.0416
     22 O         140.7536  131.8854  154.4798 O.3     1  UNL1       -0.4713
     23 C         140.2074  130.5362  154.8420 C.3     1  UNL1        0.2525
     24 O         144.6396  131.5926  157.9169 O.3     1  UNL1       -0.4713
     25 C         144.4470  130.1091  158.0265 C.3     1  UNL1        0.2525
     26 C         138.6182  141.8293  160.5295 C.3     1  UNL1        0.0982
     27 C         138.4788  141.2914  161.9228 C.2     1  UNL1        0.0075
     28 C         138.7198  139.8356  162.1924 C.2     1  UNL1       -0.0009
     29 C         138.5804  139.2978  163.5857 C.ar    1  UNL1        0.0335
     30 C         138.8214  137.8420  163.8553 C.ar    1  UNL1        0.0030
     31 C         138.6821  137.3042  165.2486 C.ar    1  UNL1        0.0002
     32 C         138.3017  138.2221  166.3723 C.ar    1  UNL1        0.0031
     33 C         138.0607  139.6779  166.1027 C.ar    1  UNL1        0.0369
     34 C         138.2001  140.2157  164.7094 C.ar    1  UNL1        0.1385
     35 O         137.9591  141.6715  164.4398 O.3     1  UNL1       -0.4788
     36 C         138.0985  142.2093  163.0465 C.3     1  UNL1        0.1496
     37 C         138.1068  143.1834  161.9059 C.3     1  UNL1        0.0480
     38 C         137.7210  143.4655  163.7741 C.3     1  UNL1        0.0480
@<TRIPOS>BOND
     1     9    10    1
     2    10     7    1
     3     7     8    2
     4     7     1    1
     5     1    11    1
     6    11    12    1
     7    12    13   am
     8    13    14    2
     9    13    16    1
    10    16    17   ar
    11    17    18   ar
    12    18    22    1
    13    22    23    1
    14    18    19   ar
    15    19    20   ar
    16    20    24    1
    17    24    25    1
    18    20    21   ar
    19     1     2    1
    20     2     3    1
    21     3     4    1
    22     4    26    1
    23    26    27    1
    24    27    28    2
    25    28    29    1
    26    29    30   ar
    27    30    31   ar
    28    31    32   ar
    29    32    33   ar
    30    33    34   ar
    31    34    35    1
    32    35    36    1
    33    36    37    1
    34    36    38    1
    35     4     5    1
    36     5     6    1
    37     6     1    1
    38    21    16   ar
    39    36    27    1
    40    34    29   ar
    41    12    15    1
@<TRIPOS>MOLECULE
*****
 38 41 0 0 0
SMALL
GASTEIGER

@<TRIPOS>ATOM
      1 C         141.8710  142.8409  161.7447 C.3     1  UNL1        0.1102
      2 C         140.4930  143.3954  161.9532 C.3     1  UNL1        0.0296
      3 C         139.5239  142.6798  162.8471 C.3     1  UNL1        0.0730
      4 N         139.9329  141.4097  163.5323 N.3     1  UNL1       -0.2691
      5 C         141.3110  140.8552  163.3238 C.3     1  UNL1        0.0730
      6 C         142.2800  141.5707  162.4300 C.3     1  UNL1        0.0296
      7 C         143.2765  142.7118  161.2369 C.2     1  UNL1        0.3177
      8 O         144.2753  143.7972  161.5101 O.2     1  UNL1       -0.2501
      9 C         143.8967  141.5952  158.9745 C.3     1  UNL1        0.2556
     10 O         143.6834  141.4975  160.4560 O.3     1  UNL1       -0.4444
     11 C         141.9502  144.0662  160.8831 C.3     1  UNL1        0.1002
     12 N         140.9083  144.3129  159.8326 N.am    1  UNL1       -0.3003
     13 C         141.3211  144.6935  158.4416 C.2     1  UNL1        0.2461
     14 O         142.7759  144.8273  158.1012 O.2     1  UNL1       -0.2701
     15 H         139.9535  144.2251  160.0561 H       1  UNL1        0.1498
     16 C         140.2793  144.9402  157.3911 C.ar    1  UNL1        0.0594
     17 C         139.4368  143.8052  156.8892 C.ar    1  UNL1        0.0416
     18 C         138.3950  144.0518  155.8386 C.ar    1  UNL1        0.1419
     19 C         138.1956  145.4336  155.2900 C.ar    1  UNL1        0.0738
     20 C         139.0381  146.5686  155.7919 C.ar    1  UNL1        0.1419
     21 C         140.0799  146.3220  156.8424 C.ar    1  UNL1        0.0416
     22 O         137.5525  142.9168  155.3367 O.3     1  UNL1       -0.4713
     23 C         137.0221  141.8944  156.2977 C.3     1  UNL1        0.2525
     24 O         138.8387  147.9504  155.2432 O.3     1  UNL1       -0.4713
     25 C         139.7868  148.4933  154.2155 C.3     1  UNL1        0.2525
     26 C         138.9639  140.6942  164.4261 C.3     1  UNL1        0.0982
     27 C         139.2152  140.6269  165.9034 C.2     1  UNL1        0.0075
     28 C         140.1155  141.6326  166.5576 C.2     1  UNL1       -0.0009
     29 C         140.3668  141.5653  168.0350 C.ar    1  UNL1        0.0335
     30 C         141.2670  142.5710  168.6892 C.ar    1  UNL1        0.0030
     31 C         141.5183  142.5037  170.1664 C.ar    1  UNL1        0.0002
     32 C         140.8693  141.4306  170.9894 C.ar    1  UNL1        0.0031
     33 C         139.9691  140.4249  170.3352 C.ar    1  UNL1        0.0369
     34 C         139.7178  140.4923  168.8580 C.ar    1  UNL1        0.1385
     35 O         138.8175  139.4865  168.2037 O.3     1  UNL1       -0.4788
     36 C         138.5662  139.5539  166.7265 C.3     1  UNL1        0.1496
     37 C         138.0241  139.2067  165.3716 C.3     1  UNL1        0.0480
     38 C         137.7290  138.3603  167.0790 C.3     1  UNL1        0.0480
@<TRIPOS>BOND
     1     9    10    1
     2    10     7    1
     3     7     8    2
     4     7     1    1
     5     1    11    1
     6    11    12    1
     7    12    13   am
     8    13    14    2
     9    13    16    1
    10    16    17   ar
    11    17    18   ar
    12    18    22    1
    13    22    23    1
    14    18    19   ar
    15    19    20   ar
    16    20    24    1
    17    24    25    1
    18    20    21   ar
    19     1     2    1
    20     2     3    1
    21     3     4    1
    22     4    26    1
    23    26    27    1
    24    27    28    2
    25    28    29    1
    26    29    30   ar
    27    30    31   ar
    28    31    32   ar
    29    32    33   ar
    30    33    34   ar
    31    34    35    1
    32    35    36    1
    33    36    37    1
    34    36    38    1
    35     4     5    1
    36     5     6    1
    37     6     1    1
    38    21    16   ar
    39    36    27    1
    40    34    29   ar
    41    12    15    1
@<TRIPOS>MOLECULE
*****
 38 41 0 0 0
SMALL
GASTEIGER

@<TRIPOS>ATOM
      1 C         140.1256  143.0824  162.0642 C.3     1  UNL1        0.1102
      2 C         141.5351  143.5233  162.3270 C.3     1  UNL1        0.0296
      3 C         142.4679  142.6347  163.0954 C.3     1  UNL1        0.0730
      4 N         141.9913  141.3054  163.6009 N.3     1  UNL1       -0.2691
      5 C         140.5818  140.8645  163.3381 C.3     1  UNL1        0.0730
      6 C         139.6490  141.7530  162.5698 C.3     1  UNL1        0.0296
      7 C         138.7111  143.1061  161.5657 C.2     1  UNL1        0.3177
      8 O         138.2766  142.1482  160.4963 O.2     1  UNL1       -0.2501
      9 C         137.4305  144.0790  163.6062 C.3     1  UNL1        0.2556
     10 O         137.7310  144.0877  162.1366 O.3     1  UNL1       -0.4444
     11 C         140.1110  144.4200  161.3855 C.3     1  UNL1        0.1002
     12 N         139.6544  144.5334  159.9612 N.am    1  UNL1       -0.3003
     13 C         140.5738  145.1033  158.9220 C.2     1  UNL1        0.2461
     14 O         141.9498  145.5597  159.3072 O.2     1  UNL1       -0.2701
     15 H         138.7513  144.2338  159.7085 H       1  UNL1        0.1498
     16 C         140.1173  145.2167  157.4977 C.ar    1  UNL1        0.0594
     17 C         139.9480  143.9814  156.6638 C.ar    1  UNL1        0.0416
     18 C         139.4915  144.0947  155.2395 C.ar    1  UNL1        0.1419
     19 C         139.2043  145.4434  154.6490 C.ar    1  UNL1        0.0738
     20 C         139.3736  146.6787  155.4829 C.ar    1  UNL1        0.1419
     21 C         139.8301  146.5654  156.9072 C.ar    1  UNL1        0.0416
     22 O         139.3222  142.8594  154.4055 O.3     1  UNL1       -0.4713
     23 C         139.3941  142.9486  152.9099 C.3     1  UNL1        0.2525
     24 O         139.0863  148.0273  154.8925 O.3     1  UNL1       -0.4713
     25 C         139.9640  148.5723  153.8051 C.3     1  UNL1        0.2525
     26 C         142.9241  140.4169  164.3693 C.3     1  UNL1        0.0982
     27 C         142.8119  140.3239  165.8622 C.2     1  UNL1        0.0075
     28 C         142.2331  141.4661  166.6434 C.2     1  UNL1       -0.0009
     29 C         142.1209  141.3732  168.1364 C.ar    1  UNL1        0.0335
     30 C         141.5420  142.5154  168.9175 C.ar    1  UNL1        0.0030
     31 C         141.4299  142.4224  170.4104 C.ar    1  UNL1        0.0002
     32 C         141.8965  141.1872  171.1221 C.ar    1  UNL1        0.0031
     33 C         142.4753  140.0450  170.3409 C.ar    1  UNL1        0.0369
     34 C         142.5875  140.1380  168.8481 C.ar    1  UNL1        0.1385
     35 O         143.1664  138.9957  168.0668 O.3     1  UNL1       -0.4788
     36 C         143.2786  139.0887  166.5739 C.3     1  UNL1        0.1496
     37 C         143.5904  138.7067  165.1573 C.3     1  UNL1        0.0480
     38 C         143.8535  137.7209  166.7936 C.3     1  UNL1        0.0480
@<TRIPOS>BOND
     1     9    10    1
     2    10     7    1
     3     7     8    2
     4     7     1    1
     5     1    11    1
     6    11    12    1
     7    12    13   am
     8    13    14    2
     9    13    16    1
    10    16    17   ar
    11    17    18   ar
    12    18    22    1
    13    22    23    1
    14    18    19   ar
    15    19    20   ar
    16    20    24    1
    17    24    25    1
    18    20    21   ar
    19     1     2    1
    20     2     3    1
    21     3     4    1
    22     4    26    1
    23    26    27    1
    24    27    28    2
    25    28    29    1
    26    29    30   ar
    27    30    31   ar
    28    31    32   ar
    29    32    33   ar
    30    33    34   ar
    31    34    35    1
    32    35    36    1
    33    36    37    1
    34    36    38    1
    35     4     5    1
    36     5     6    1
    37     6     1    1
    38    21    16   ar
    39    36    27    1
    40    34    29   ar
    41    12    15    1
@<TRIPOS>MOLECULE
*****
 38 41 0 0 0
SMALL
GASTEIGER

@<TRIPOS>ATOM
      1 C         140.8060  143.0531  161.4596 C.3     1  UNL1        0.1102
      2 C         141.8373  142.2344  162.1780 C.3     1  UNL1        0.0296
      3 C         141.4097  141.1512  163.1235 C.3     1  UNL1        0.0730
      4 N         139.9508  140.8867  163.3505 N.3     1  UNL1       -0.2691
      5 C         138.9195  141.7054  162.6322 C.3     1  UNL1        0.0730
      6 C         139.3470  142.7886  161.6867 C.3     1  UNL1        0.0296
      7 C         140.2093  144.0885  160.5531 C.2     1  UNL1        0.3177
      8 O         139.2832  143.6741  159.4483 O.2     1  UNL1       -0.2501
      9 C         139.7358  146.3657  161.7108 C.3     1  UNL1        0.2556
     10 O         140.5388  145.5385  160.7512 O.3     1  UNL1       -0.4444
     11 C         142.0577  143.6772  160.9177 C.3     1  UNL1        0.1002
     12 N         142.5605  143.2910  159.5583 N.am    1  UNL1       -0.3003
     13 C         143.9701  142.8067  159.3896 C.2     1  UNL1        0.2461
     14 O         144.8769  142.7086  160.5805 O.2     1  UNL1       -0.2701
     15 H         141.9653  143.3555  158.7767 H       1  UNL1        0.1498
     16 C         144.4729  142.4205  158.0302 C.ar    1  UNL1        0.0594
     17 C         145.9350  142.5285  157.7129 C.ar    1  UNL1        0.0416
     18 C         146.4379  142.1423  156.3535 C.ar    1  UNL1        0.1419
     19 C         145.4788  141.6481  155.3115 C.ar    1  UNL1        0.0738
     20 C         144.0167  141.5401  155.6289 C.ar    1  UNL1        0.1419
     21 C         143.5138  141.9263  156.9882 C.ar    1  UNL1        0.0416
     22 O         147.9000  142.2503  156.0362 O.3     1  UNL1       -0.4713
     23 C         148.3982  141.8969  154.6662 C.3     1  UNL1        0.2525
     24 O         143.0576  141.0460  154.5868 O.3     1  UNL1       -0.4713
     25 C         141.6888  140.5813  154.9874 C.3     1  UNL1        0.2525
     26 C         139.5233  139.8036  164.2960 C.3     1  UNL1        0.0982
     27 C         139.5169  140.0578  165.7743 C.2     1  UNL1        0.0075
     28 C         140.3716  141.1469  166.3517 C.2     1  UNL1       -0.0009
     29 C         140.3652  141.4011  167.8301 C.ar    1  UNL1        0.0335
     30 C         141.2198  142.4902  168.4075 C.ar    1  UNL1        0.0030
     31 C         141.2134  142.7444  169.8857 C.ar    1  UNL1        0.0002
     32 C         140.3524  141.9095  170.7866 C.ar    1  UNL1        0.0031
     33 C         139.4977  140.8204  170.2092 C.ar    1  UNL1        0.0369
     34 C         139.5041  140.5662  168.7309 C.ar    1  UNL1        0.1385
     35 O         138.6495  139.4771  168.1534 O.3     1  UNL1       -0.4788
     36 C         138.6559  139.2229  166.6752 C.3     1  UNL1        0.1496
     37 C         138.3231  138.6041  165.3499 C.3     1  UNL1        0.0480
     38 C         137.6793  138.1731  167.1157 C.3     1  UNL1        0.0480
@<TRIPOS>BOND
     1     9    10    1
     2    10     7    1
     3     7     8    2
     4     7     1    1
     5     1    11    1
     6    11    12    1
     7    12    13   am
     8    13    14    2
     9    13    16    1
    10    16    17   ar
    11    17    18   ar
    12    18    22    1
    13    22    23    1
    14    18    19   ar
    15    19    20   ar
    16    20    24    1
    17    24    25    1
    18    20    21   ar
    19     1     2    1
    20     2     3    1
    21     3     4    1
    22     4    26    1
    23    26    27    1
    24    27    28    2
    25    28    29    1
    26    29    30   ar
    27    30    31   ar
    28    31    32   ar
    29    32    33   ar
    30    33    34   ar
    31    34    35    1
    32    35    36    1
    33    36    37    1
    34    36    38    1
    35     4     5    1
    36     5     6    1
    37     6     1    1
    38    21    16   ar
    39    36    27    1
    40    34    29   ar
    41    12    15    1
@<TRIPOS>MOLECULE
*****
 38 41 0 0 0
SMALL
GASTEIGER

@<TRIPOS>ATOM
      1 C         141.7953  139.3587  160.3493 C.3     1  UNL1        0.1102
      2 C         142.1880  138.0236  160.9090 C.3     1  UNL1        0.0296
      3 C         141.6511  137.5800  162.2376 C.3     1  UNL1        0.0730
      4 N         140.7217  138.4716  163.0065 N.3     1  UNL1       -0.2691
      5 C         140.3291  139.8068  162.4468 C.3     1  UNL1        0.0730
      6 C         140.8659  140.2503  161.1183 C.3     1  UNL1        0.0296
      7 C         141.7159  140.5249  159.4093 C.2     1  UNL1        0.3177
      8 O         141.9634  141.9148  159.9159 O.2     1  UNL1       -0.2501
      9 C         140.0344  140.6697  157.4340 C.3     1  UNL1        0.2556
     10 O         141.3889  140.3011  157.9625 O.3     1  UNL1       -0.4444
     11 C         142.6972  138.8721  159.2539 C.3     1  UNL1        0.1002
     12 N         142.4867  137.5119  158.6579 N.am    1  UNL1       -0.3003
     13 C         142.9774  137.2164  157.2716 C.2     1  UNL1        0.2461
     14 O         143.6786  138.2812  156.4813 O.2     1  UNL1       -0.2701
     15 H         142.0265  136.8130  159.1766 H       1  UNL1        0.1498
     16 C         142.7670  135.8561  156.6754 C.ar    1  UNL1        0.0594
     17 C         143.3573  134.6471  157.3387 C.ar    1  UNL1        0.0416
     18 C         143.1470  133.2869  156.7426 C.ar    1  UNL1        0.1419
     19 C         142.3462  133.1355  155.4833 C.ar    1  UNL1        0.0738
     20 C         141.7558  134.3445  154.8201 C.ar    1  UNL1        0.1419
     21 C         141.9662  135.7048  155.4161 C.ar    1  UNL1        0.0416
     22 O         143.7373  132.0779  157.4059 O.3     1  UNL1       -0.4713
     23 C         145.1486  132.1146  157.9128 C.3     1  UNL1        0.2525
     24 O         140.9551  134.1931  153.5608 O.3     1  UNL1       -0.4713
     25 C         140.8178  135.3498  152.6157 C.3     1  UNL1        0.2525
     26 C         140.1849  138.0281  164.3350 C.3     1  UNL1        0.0982
     27 C         140.2687  138.9427  165.5210 C.2     1  UNL1        0.0075
     28 C         141.5085  139.7532  165.7570 C.2     1  UNL1       -0.0009
     29 C         141.5923  140.6678  166.9430 C.ar    1  UNL1        0.0335
     30 C         142.8321  141.4783  167.1790 C.ar    1  UNL1        0.0030
     31 C         142.9158  142.3928  168.3650 C.ar    1  UNL1        0.0002
     32 C         141.7596  142.4969  169.3150 C.ar    1  UNL1        0.0031
     33 C         140.5198  141.6864  169.0790 C.ar    1  UNL1        0.0369
     34 C         140.4361  140.7718  167.8930 C.ar    1  UNL1        0.1385
     35 O         139.1962  139.9612  167.6570 O.3     1  UNL1       -0.4788
     36 C         139.1125  139.0467  166.4710 C.3     1  UNL1        0.1496
     37 C         138.5607  138.0478  165.4975 C.3     1  UNL1        0.0480
     38 C         137.7647  138.8038  167.0829 C.3     1  UNL1        0.0480
@<TRIPOS>BOND
     1     9    10    1
     2    10     7    1
     3     7     8    2
     4     7     1    1
     5     1    11    1
     6    11    12    1
     7    12    13   am
     8    13    14    2
     9    13    16    1
    10    16    17   ar
    11    17    18   ar
    12    18    22    1
    13    22    23    1
    14    18    19   ar
    15    19    20   ar
    16    20    24    1
    17    24    25    1
    18    20    21   ar
    19     1     2    1
    20     2     3    1
    21     3     4    1
    22     4    26    1
    23    26    27    1
    24    27    28    2
    25    28    29    1
    26    29    30   ar
    27    30    31   ar
    28    31    32   ar
    29    32    33   ar
    30    33    34   ar
    31    34    35    1
    32    35    36    1
    33    36    37    1
    34    36    38    1
    35     4     5    1
    36     5     6    1
    37     6     1    1
    38    21    16   ar
    39    36    27    1
    40    34    29   ar
    41    12    15    1
