@<TRIPOS>MOLECULE
*****
 34 39 0 0 0
SMALL
GASTEIGER

@<TRIPOS>ATOM
      1 C         142.5945  137.8913  157.3374 C.ar    1  UNL1        0.1028
      2 C         142.7898  138.5037  155.9822 C.ar    1  UNL1        0.0131
      3 C         142.4836  139.9559  155.7641 C.ar    1  UNL1       -0.0015
      4 C         141.9673  141.0691  156.6929 C.ar    1  UNL1        0.0035
      5 C         142.1279  139.7362  157.3619 C.ar    1  UNL1        0.0358
      6 C         142.0929  138.7309  158.4747 C.ar    1  UNL1        0.1545
      7 O         141.8675  138.2063  159.8617 O.3     1  UNL1       -0.4528
      8 C         141.4860  138.2422  161.3120 C.ar    1  UNL1        0.1453
      9 C         141.4074  137.1672  162.6620 C.ar    1  UNL1        0.0406
     10 C         140.9856  137.3941  164.0835 C.ar    1  UNL1        0.0398
     11 C         140.5332  138.7548  164.5235 C.ar    1  UNL1        0.1363
     12 C         140.5021  139.8893  163.5428 C.ar    1  UNL1        0.0329
     13 C         141.0065  138.8333  162.6045 C.ar    1  UNL1        0.0378
     14 C         140.0494  141.2498  163.9837 C.3     1  UNL1        0.1046
     15 C         139.6279  141.4756  165.4055 C.3     1  UNL1        0.0718
     16 C         139.6590  140.3411  166.3862 C.3     1  UNL1        0.2075
     17 O         140.1116  138.9807  165.9452 O.3     1  UNL1       -0.4757
     18 N         139.7175  142.7074  163.8603 N.am    1  UNL1       -0.2761
     19 C         139.2207  143.8743  164.6612 C.3     1  UNL1        0.0956
     20 C         139.1567  145.0663  163.7529 C.3     1  UNL1        0.0466
     21 C         139.5919  145.0455  162.0785 C.3     1  UNL1        0.1337
     22 N         139.8174  145.5701  160.6914 N.3     1  UNL1       -0.2863
     23 C         140.1989  145.5342  159.2412 C.3     1  UNL1        0.1151
     24 C         140.6783  144.9432  157.9486 C.ar    1  UNL1        0.0739
     25 C         140.5558  146.2256  157.1802 C.ar    1  UNL1        0.1147
     26 N         140.9845  145.9621  155.7672 N.ar    1  UNL1       -0.2226
     27 C         141.3720  144.5168  155.6622 C.ar    1  UNL1        0.1786
     28 N         141.1828  143.8871  157.0104 N.ar    1  UNL1       -0.3070
     29 C         141.6354  142.5267  156.5695 C.3     1  UNL1        0.1341
     30 C         139.5569  144.0403  163.1913 C.2     1  UNL1        0.2401
     31 O         139.3065  144.3200  163.8945 O.2     1  UNL1       -0.2734
     32 H         140.4444  146.3297  160.9564 H       1  UNL1        0.1240
     33 N         143.2070  134.9870  157.7734 N.1     1  UNL1       -0.1907
     34 C         142.9007  136.4391  157.5554 C.1     1  UNL1        0.1035
@<TRIPOS>BOND
     1    33    34    3
     2    34     1    1
     3     1     2   ar
     4     2     3   ar
     5     3     4   ar
     6     4     5   ar
     7     5     6   ar
     8     6     7    1
     9     7     8    1
    10     8     9   ar
    11     9    10   ar
    12    10    11   ar
    13    11    12   ar
    14    12    13   ar
    15    12    14    1
    16    14    15    1
    17    15    16    1
    18    16    17    1
    19    14    18    1
    20    18    19    1
    21    19    20    1
    22    21    20    1
    23    21    22    1
    24    22    23    1
    25    23    24    1
    26    24    25   ar
    27    25    26   ar
    28    26    27   ar
    29    27    28   ar
    30    28    29    1
    31    21    30    1
    32    30    31    2
    33     6     1   ar
    34    13     8   ar
    35    30    18   am
    36    29     4    1
    37    17    11    1
    38    28    24   ar
    39    22    32    1
@<TRIPOS>MOLECULE
*****
 34 39 0 0 0
SMALL
GASTEIGER

@<TRIPOS>ATOM
      1 C         139.6016  146.9837  156.3127 C.ar    1  UNL1        0.1028
      2 C         139.7635  146.8421  154.8283 C.ar    1  UNL1        0.0131
      3 C         140.4844  145.6546  154.2623 C.ar    1  UNL1       -0.0015
      4 C         141.1603  144.4327  154.9092 C.ar    1  UNL1        0.0035
      5 C         140.5514  145.3893  155.8911 C.ar    1  UNL1        0.0358
      6 C         140.1606  145.9379  157.2313 C.ar    1  UNL1        0.1545
      7 O         140.0474  145.9949  158.7259 O.3     1  UNL1       -0.4528
      8 C         140.2290  145.5517  160.1474 C.ar    1  UNL1        0.1453
      9 C         139.8292  146.0928  161.7385 C.ar    1  UNL1        0.0406
     10 C         140.1055  145.4934  163.0855 C.ar    1  UNL1        0.0398
     11 C         140.8535  144.1975  163.1905 C.ar    1  UNL1        0.1363
     12 C         141.3255  143.5002  161.9493 C.ar    1  UNL1        0.0329
     13 C         140.6779  144.6756  161.2792 C.ar    1  UNL1        0.0378
     14 C         142.0735  142.2042  162.0553 C.3     1  UNL1        0.1046
     15 C         142.3494  141.6056  163.4027 C.3     1  UNL1        0.0718
     16 C         141.8774  142.3030  164.6440 C.3     1  UNL1        0.2075
     17 O         141.1295  143.5989  164.5380 O.3     1  UNL1       -0.4757
     18 N         142.8078  140.9852  161.5813 N.am    1  UNL1       -0.2761
     19 C         143.4969  139.7534  162.0891 C.3     1  UNL1        0.0956
     20 C         144.0065  138.9860  160.9053 C.3     1  UNL1        0.0466
     21 C         143.8075  139.4800  159.2592 C.3     1  UNL1        0.1337
     22 N         143.9207  139.4230  157.7645 N.3     1  UNL1       -0.2863
     23 C         143.7390  139.8662  156.3431 C.3     1  UNL1        0.1151
     24 C         143.2902  140.7423  155.2112 C.ar    1  UNL1        0.0739
     25 C         143.8620  139.8573  154.1435 C.ar    1  UNL1        0.1147
     26 N         143.5678  140.4858  152.8138 N.ar    1  UNL1       -0.2226
     27 C         142.8141  141.7592  153.0595 C.ar    1  UNL1        0.1786
     28 N         142.6425  141.9177  154.5412 N.ar    1  UNL1       -0.3070
     29 C         141.8946  143.2137  154.4352 C.3     1  UNL1        0.1341
     30 C         143.4167  140.0285  160.5995 C.2     1  UNL1        0.2401
     31 O         143.6394  139.5879  161.2253 O.2     1  UNL1       -0.2734
     32 H         143.4982  138.5014  157.6523 H       1  UNL1        0.1240
     33 N         138.1600  149.3587  157.4447 N.1     1  UNL1       -0.1907
     34 C         138.8808  148.1712  156.8787 C.1     1  UNL1        0.1035
@<TRIPOS>BOND
     1    33    34    3
     2    34     1    1
     3     1     2   ar
     4     2     3   ar
     5     3     4   ar
     6     4     5   ar
     7     5     6   ar
     8     6     7    1
     9     7     8    1
    10     8     9   ar
    11     9    10   ar
    12    10    11   ar
    13    11    12   ar
    14    12    13   ar
    15    12    14    1
    16    14    15    1
    17    15    16    1
    18    16    17    1
    19    14    18    1
    20    18    19    1
    21    19    20    1
    22    21    20    1
    23    21    22    1
    24    22    23    1
    25    23    24    1
    26    24    25   ar
    27    25    26   ar
    28    26    27   ar
    29    27    28   ar
    30    28    29    1
    31    21    30    1
    32    30    31    2
    33     6     1   ar
    34    13     8   ar
    35    30    18   am
    36    29     4    1
    37    17    11    1
    38    28    24   ar
    39    22    32    1
@<TRIPOS>MOLECULE
*****
 34 39 0 0 0
SMALL
GASTEIGER

@<TRIPOS>ATOM
      1 C         140.1619  144.6199  156.4441 C.ar    1  UNL1        0.1028
      2 C         140.4513  143.9744  155.1214 C.ar    1  UNL1        0.0131
      3 C         140.9529  142.5616  155.0700 C.ar    1  UNL1       -0.0015
      4 C         141.2699  141.5218  156.1593 C.ar    1  UNL1        0.0035
      5 C         140.7806  142.8369  156.6894 C.ar    1  UNL1        0.0358
      6 C         140.3741  143.8528  157.7155 C.ar    1  UNL1        0.1545
      7 O         140.1124  144.4146  159.0814 O.3     1  UNL1       -0.4528
      8 C         140.0351  144.4369  160.5793 C.ar    1  UNL1        0.1453
      9 C         139.5906  145.5295  161.8414 C.ar    1  UNL1        0.0406
     10 C         139.5793  145.3661  163.3324 C.ar    1  UNL1        0.0398
     11 C         140.0097  144.0676  163.9479 C.ar    1  UNL1        0.1363
     12 C         140.4515  142.9320  163.0732 C.ar    1  UNL1        0.0329
     13 C         140.1542  143.9162  161.9809 C.ar    1  UNL1        0.0378
     14 C         140.8817  141.6339  163.6895 C.3     1  UNL1        0.1046
     15 C         140.8701  141.4714  165.1807 C.3     1  UNL1        0.0718
     16 C         140.4283  142.6070  166.0553 C.3     1  UNL1        0.2075
     17 O         139.9981  143.9051  165.4390 O.3     1  UNL1       -0.4757
     18 N         141.3793  140.2196  163.7362 N.am    1  UNL1       -0.2761
     19 C         141.7223  139.1227  164.7002 C.3     1  UNL1        0.0956
     20 C         142.1789  137.9344  163.9069 C.3     1  UNL1        0.0466
     21 C         142.2750  137.8886  162.1801 C.3     1  UNL1        0.1337
     22 N         142.5368  137.3268  160.8141 N.3     1  UNL1       -0.2863
     23 C         142.6140  137.3045  159.3162 C.3     1  UNL1        0.1151
     24 C         142.4950  137.8251  157.9145 C.ar    1  UNL1        0.0739
     25 C         142.9734  136.5548  157.2762 C.ar    1  UNL1        0.1147
     26 N         142.9718  136.7541  155.7895 N.ar    1  UNL1       -0.2226
     27 C         142.4924  138.1474  155.5090 C.ar    1  UNL1        0.1786
     28 N         142.1977  138.8094  156.8224 N.ar    1  UNL1       -0.3070
     29 C         141.7675  140.1075  156.2060 C.3     1  UNL1        0.1341
     30 C         141.8686  138.9044  163.2062 C.2     1  UNL1        0.2401
     31 O         141.9193  138.6616  163.9638 O.2     1  UNL1       -0.2734
     32 H         141.9380  136.5067  160.9105 H       1  UNL1        0.1240
     33 N         139.1587  147.4453  156.5468 N.1     1  UNL1       -0.1907
     34 C         139.6603  146.0326  156.4955 C.1     1  UNL1        0.1035
@<TRIPOS>BOND
     1    33    34    3
     2    34     1    1
     3     1     2   ar
     4     2     3   ar
     5     3     4   ar
     6     4     5   ar
     7     5     6   ar
     8     6     7    1
     9     7     8    1
    10     8     9   ar
    11     9    10   ar
    12    10    11   ar
    13    11    12   ar
    14    12    13   ar
    15    12    14    1
    16    14    15    1
    17    15    16    1
    18    16    17    1
    19    14    18    1
    20    18    19    1
    21    19    20    1
    22    21    20    1
    23    21    22    1
    24    22    23    1
    25    23    24    1
    26    24    25   ar
    27    25    26   ar
    28    26    27   ar
    29    27    28   ar
    30    28    29    1
    31    21    30    1
    32    30    31    2
    33     6     1   ar
    34    13     8   ar
    35    30    18   am
    36    29     4    1
    37    17    11    1
    38    28    24   ar
    39    22    32    1
@<TRIPOS>MOLECULE
*****
 34 39 0 0 0
SMALL
GASTEIGER

@<TRIPOS>ATOM
      1 C         142.6255  136.1903  156.5619 C.ar    1  UNL1        0.1028
      2 C         142.1101  136.1058  155.1559 C.ar    1  UNL1        0.0131
      3 C         141.4305  137.2895  154.5337 C.ar    1  UNL1       -0.0015
      4 C         141.1081  138.7033  155.0490 C.ar    1  UNL1        0.0035
      5 C         141.8167  137.8336  156.0445 C.ar    1  UNL1        0.0358
      6 C         142.4614  137.4585  157.3460 C.ar    1  UNL1        0.1545
      7 O         142.9438  137.6354  158.7551 O.3     1  UNL1       -0.4528
      8 C         143.1907  138.3374  160.0577 C.ar    1  UNL1        0.1453
      9 C         143.9091  138.0103  161.5943 C.ar    1  UNL1        0.0406
     10 C         144.0666  138.8678  162.8149 C.ar    1  UNL1        0.0398
     11 C         143.5465  140.2747  162.8152 C.ar    1  UNL1        0.1363
     12 C         142.8688  140.8251  161.5955 C.ar    1  UNL1        0.0329
     13 C         143.1643  139.4574  161.0550 C.ar    1  UNL1        0.0378
     14 C         142.3490  142.2322  161.5968 C.3     1  UNL1        0.1046
     15 C         142.5070  143.0889  162.8179 C.3     1  UNL1        0.0718
     16 C         143.1847  142.5386  164.0376 C.3     1  UNL1        0.2075
     17 O         143.7045  141.1315  164.0363 O.3     1  UNL1       -0.4757
     18 N         141.6842  143.4644  161.0587 N.am    1  UNL1       -0.2761
     19 C         141.3149  144.8667  161.4424 C.3     1  UNL1        0.0956
     20 C         140.6250  145.5013  160.2715 C.3     1  UNL1        0.0466
     21 C         140.3309  144.7093  158.7617 C.3     1  UNL1        0.1337
     22 N         139.8484  144.5324  157.3524 N.3     1  UNL1       -0.2863
     23 C         139.6016  143.8304  156.0500 C.3     1  UNL1        0.1151
     24 C         139.6279  142.7104  155.0526 C.ar    1  UNL1        0.0739
     25 C         138.9235  143.4897  153.9819 C.ar    1  UNL1        0.1147
     26 N         138.7837  142.6036  152.7796 N.ar    1  UNL1       -0.2226
     27 C         139.4017  141.2767  153.1073 C.ar    1  UNL1        0.1786
     28 N         139.9235  141.3427  154.5121 N.ar    1  UNL1       -0.3070
     29 C         140.4432  139.9356  154.5108 C.3     1  UNL1        0.1341
     30 C         140.9755  144.3343  160.0632 C.2     1  UNL1        0.2401
     31 O         140.9796  144.9067  160.6180 O.2     1  UNL1       -0.2734
     32 H         140.3452  145.3319  156.9597 H       1  UNL1        0.1240
     33 N         143.9846  133.8229  157.8062 N.1     1  UNL1       -0.1907
     34 C         143.3050  135.0066  157.1841 C.1     1  UNL1        0.1035
@<TRIPOS>BOND
     1    33    34    3
     2    34     1    1
     3     1     2   ar
     4     2     3   ar
     5     3     4   ar
     6     4     5   ar
     7     5     6   ar
     8     6     7    1
     9     7     8    1
    10     8     9   ar
    11     9    10   ar
    12    10    11   ar
    13    11    12   ar
    14    12    13   ar
    15    12    14    1
    16    14    15    1
    17    15    16    1
    18    16    17    1
    19    14    18    1
    20    18    19    1
    21    19    20    1
    22    21    20    1
    23    21    22    1
    24    22    23    1
    25    23    24    1
    26    24    25   ar
    27    25    26   ar
    28    26    27   ar
    29    27    28   ar
    30    28    29    1
    31    21    30    1
    32    30    31    2
    33     6     1   ar
    34    13     8   ar
    35    30    18   am
    36    29     4    1
    37    17    11    1
    38    28    24   ar
    39    22    32    1
@<TRIPOS>MOLECULE
*****
 34 39 0 0 0
SMALL
GASTEIGER

@<TRIPOS>ATOM
      1 C         145.4082  142.4991  157.3219 C.ar    1  UNL1        0.1028
      2 C         144.9295  142.4880  155.9004 C.ar    1  UNL1        0.0131
      3 C         143.4913  142.1899  155.5956 C.ar    1  UNL1       -0.0015
      4 C         142.2779  141.8621  156.4836 C.ar    1  UNL1        0.0035
      5 C         143.5505  142.0931  157.2433 C.ar    1  UNL1        0.0358
      6 C         144.4488  142.2122  158.4387 C.ar    1  UNL1        0.1545
      7 O         144.8359  142.2012  159.8878 O.3     1  UNL1       -0.4528
      8 C         144.6530  142.0618  161.3701 C.ar    1  UNL1        0.1453
      9 C         145.5974  142.1746  162.8123 C.ar    1  UNL1        0.0406
     10 C         145.2254  141.9960  164.2544 C.ar    1  UNL1        0.0398
     11 C         143.8125  141.6583  164.6282 C.ar    1  UNL1        0.1363
     12 C         142.7709  141.4990  163.5607 C.ar    1  UNL1        0.0329
     13 C         143.9279  141.8152  162.6598 C.ar    1  UNL1        0.0378
     14 C         141.3583  141.1613  163.9355 C.3     1  UNL1        0.1046
     15 C         140.9873  140.9829  165.3779 C.3     1  UNL1        0.0718
     16 C         142.0289  141.1423  166.4454 C.3     1  UNL1        0.2075
     17 O         143.4415  141.4800  166.0706 O.3     1  UNL1       -0.4757
     18 N         139.9051  140.8535  163.7272 N.am    1  UNL1       -0.2761
     19 C         138.6506  140.5255  164.4813 C.3     1  UNL1        0.0956
     20 C         137.5439  140.3470  163.4846 C.3     1  UNL1        0.0466
     21 C         137.7342  140.5034  161.7722 C.3     1  UNL1        0.1337
     22 N         137.3471  140.5144  160.3230 N.3     1  UNL1       -0.2863
     23 C         137.5300  140.6538  158.8407 C.3     1  UNL1        0.1151
     24 C         138.2551  140.9004  157.5510 C.ar    1  UNL1        0.0739
     25 C         137.0433  140.6894  156.6925 C.ar    1  UNL1        0.1147
     26 N         137.4513  140.8753  155.2611 N.ar    1  UNL1       -0.2226
     27 C         138.9153  141.2011  155.2349 C.ar    1  UNL1        0.1786
     28 N         139.4121  141.2166  156.6501 N.ar    1  UNL1       -0.3070
     29 C         140.8247  141.5543  156.2753 C.3     1  UNL1        0.1341
     30 C         138.6324  140.6225  162.9676 C.2     1  UNL1        0.2401
     31 O         138.2800  140.4975  163.6716 O.2     1  UNL1       -0.2734
     32 H         136.5939  141.1967  160.4105 H       1  UNL1        0.1240
     33 N         148.2845  143.0951  157.9316 N.1     1  UNL1       -0.1907
     34 C         146.8464  142.7971  157.6267 C.1     1  UNL1        0.1035
@<TRIPOS>BOND
     1    33    34    3
     2    34     1    1
     3     1     2   ar
     4     2     3   ar
     5     3     4   ar
     6     4     5   ar
     7     5     6   ar
     8     6     7    1
     9     7     8    1
    10     8     9   ar
    11     9    10   ar
    12    10    11   ar
    13    11    12   ar
    14    12    13   ar
    15    12    14    1
    16    14    15    1
    17    15    16    1
    18    16    17    1
    19    14    18    1
    20    18    19    1
    21    19    20    1
    22    21    20    1
    23    21    22    1
    24    22    23    1
    25    23    24    1
    26    24    25   ar
    27    25    26   ar
    28    26    27   ar
    29    27    28   ar
    30    28    29    1
    31    21    30    1
    32    30    31    2
    33     6     1   ar
    34    13     8   ar
    35    30    18   am
    36    29     4    1
    37    17    11    1
    38    28    24   ar
    39    22    32    1
@<TRIPOS>MOLECULE
*****
 34 39 0 0 0
SMALL
GASTEIGER

@<TRIPOS>ATOM
      1 C         135.4158  140.8152  156.2862 C.ar    1  UNL1        0.1028
      2 C         135.2968  141.4939  154.9540 C.ar    1  UNL1        0.0131
      3 C         136.4575  142.2648  154.3985 C.ar    1  UNL1       -0.0015
      4 C         137.8752  142.5490  154.9253 C.ar    1  UNL1        0.0035
      5 C         137.0358  141.7102  155.8427 C.ar    1  UNL1        0.0358
      6 C         136.6956  140.9073  157.0632 C.ar    1  UNL1        0.1545
      7 O         136.9066  140.2626  158.4010 O.3     1  UNL1       -0.4528
      8 C         137.6366  139.8743  159.6526 C.ar    1  UNL1        0.1453
      9 C         137.3500  138.9709  161.0969 C.ar    1  UNL1        0.0406
     10 C         138.2326  138.6839  162.2754 C.ar    1  UNL1        0.0398
     11 C         139.6306  139.2259  162.3149 C.ar    1  UNL1        0.1363
     12 C         140.1471  140.0550  161.1766 C.ar    1  UNL1        0.0329
     13 C         138.7745  139.8014  160.6272 C.ar    1  UNL1        0.0378
     14 C         141.5453  140.5966  161.2170 C.3     1  UNL1        0.1046
     15 C         142.4272  140.3091  162.3959 C.3     1  UNL1        0.0718
     16 C         141.9107  139.4800  163.5342 C.3     1  UNL1        0.2075
     17 O         140.5125  138.9384  163.4938 O.3     1  UNL1       -0.4757
     18 N         142.7564  141.3437  160.7424 N.am    1  UNL1       -0.2761
     19 C         144.1594  141.6900  161.1445 C.3     1  UNL1        0.0956
     20 C         144.7607  142.5269  160.0546 C.3     1  UNL1        0.0466
     21 C         143.9360  142.9854  158.6045 C.3     1  UNL1        0.1337
     22 N         143.7250  143.6300  157.2666 N.3     1  UNL1       -0.2863
     23 C         142.9950  144.0184  156.0151 C.3     1  UNL1        0.1151
     24 C         141.8571  144.0913  155.0404 C.ar    1  UNL1        0.0739
     25 C         142.6048  144.9332  154.0494 C.ar    1  UNL1        0.1147
     26 N         141.6943  145.1999  152.8876 N.ar    1  UNL1       -0.2226
     27 C         140.3839  144.5228  153.1605 C.ar    1  UNL1        0.1786
     28 N         140.4845  143.8376  154.4911 N.ar    1  UNL1       -0.3070
     29 C         139.0863  143.2960  154.4507 C.3     1  UNL1        0.1341
     30 C         143.5959  142.1825  159.8250 C.2     1  UNL1        0.2401
     31 O         144.1785  142.1224  160.3658 O.2     1  UNL1       -0.2734
     32 H         144.5251  143.1987  156.8037 H       1  UNL1        0.1240
     33 N         133.0945  139.2735  157.3973 N.1     1  UNL1       -0.1907
     34 C         134.2551  140.0443  156.8417 C.1     1  UNL1        0.1035
@<TRIPOS>BOND
     1    33    34    3
     2    34     1    1
     3     1     2   ar
     4     2     3   ar
     5     3     4   ar
     6     4     5   ar
     7     5     6   ar
     8     6     7    1
     9     7     8    1
    10     8     9   ar
    11     9    10   ar
    12    10    11   ar
    13    11    12   ar
    14    12    13   ar
    15    12    14    1
    16    14    15    1
    17    15    16    1
    18    16    17    1
    19    14    18    1
    20    18    19    1
    21    19    20    1
    22    21    20    1
    23    21    22    1
    24    22    23    1
    25    23    24    1
    26    24    25   ar
    27    25    26   ar
    28    26    27   ar
    29    27    28   ar
    30    28    29    1
    31    21    30    1
    32    30    31    2
    33     6     1   ar
    34    13     8   ar
    35    30    18   am
    36    29     4    1
    37    17    11    1
    38    28    24   ar
    39    22    32    1
@<TRIPOS>MOLECULE
*****
 34 39 0 0 0
SMALL
GASTEIGER

@<TRIPOS>ATOM
      1 C         138.0434  140.8984  156.5835 C.ar    1  UNL1        0.1028
      2 C         138.6784  141.0070  155.2289 C.ar    1  UNL1        0.0131
      3 C         140.1436  141.3051  155.1091 C.ar    1  UNL1       -0.0015
      4 C         141.2520  141.5485  156.1486 C.ar    1  UNL1        0.0035
      5 C         139.9009  141.2813  156.7426 C.ar    1  UNL1        0.0358
      6 C         138.8735  141.0880  157.8184 C.ar    1  UNL1        0.1545
      7 O         138.3266  140.9981  159.2121 O.3     1  UNL1       -0.4528
      8 C         138.3432  141.0253  160.7119 C.ar    1  UNL1        0.1453
      9 C         137.2425  140.8208  162.0275 C.ar    1  UNL1        0.0406
     10 C         137.4518  140.8872  163.5114 C.ar    1  UNL1        0.0398
     11 C         138.8161  141.1754  164.0642 C.ar    1  UNL1        0.1363
     12 C         139.9717  141.3972  163.1341 C.ar    1  UNL1        0.0329
     13 C         138.9210  141.1655  162.0890 C.ar    1  UNL1        0.0378
     14 C         141.3357  141.6853  163.6879 C.3     1  UNL1        0.1046
     15 C         141.5440  141.7515  165.1719 C.3     1  UNL1        0.0718
     16 C         140.3884  141.5296  166.1020 C.3     1  UNL1        0.2075
     17 O         139.0244  141.2415  165.5482 O.3     1  UNL1       -0.4757
     18 N         142.8051  141.9858  163.6661 N.am    1  UNL1       -0.2761
     19 C         143.9694  142.2387  164.5774 C.3     1  UNL1        0.0956
     20 C         145.1819  142.4734  163.7262 C.3     1  UNL1        0.0466
     21 C         145.1836  142.4463  161.9963 C.3     1  UNL1        0.1337
     22 N         145.7306  142.5362  160.6025 N.3     1  UNL1       -0.2863
     23 C         145.7139  142.5090  159.1028 C.3     1  UNL1        0.1151
     24 C         145.1362  142.3689  157.7256 C.ar    1  UNL1        0.0739
     25 C         146.4379  142.6243  157.0254 C.ar    1  UNL1        0.1147
     26 N         146.1916  142.5504  155.5476 N.ar    1  UNL1       -0.2226
     27 C         144.7377  142.2493  155.3345 C.ar    1  UNL1        0.1786
     28 N         144.0854  142.1371  156.6806 N.ar    1  UNL1       -0.3070
     29 C         142.7214  141.8491  156.1268 C.3     1  UNL1        0.1341
     30 C         144.1564  142.2531  163.0721 C.2     1  UNL1        0.2401
     31 O         144.4285  142.3206  163.8183 O.2     1  UNL1       -0.2734
     32 H         146.4647  141.8382  160.7219 H       1  UNL1        0.1240
     33 N         135.1130  140.3022  156.8233 N.1     1  UNL1       -0.1907
     34 C         136.5782  140.6003  156.7033 C.1     1  UNL1        0.1035
@<TRIPOS>BOND
     1    33    34    3
     2    34     1    1
     3     1     2   ar
     4     2     3   ar
     5     3     4   ar
     6     4     5   ar
     7     5     6   ar
     8     6     7    1
     9     7     8    1
    10     8     9   ar
    11     9    10   ar
    12    10    11   ar
    13    11    12   ar
    14    12    13   ar
    15    12    14    1
    16    14    15    1
    17    15    16    1
    18    16    17    1
    19    14    18    1
    20    18    19    1
    21    19    20    1
    22    21    20    1
    23    21    22    1
    24    22    23    1
    25    23    24    1
    26    24    25   ar
    27    25    26   ar
    28    26    27   ar
    29    27    28   ar
    30    28    29    1
    31    21    30    1
    32    30    31    2
    33     6     1   ar
    34    13     8   ar
    35    30    18   am
    36    29     4    1
    37    17    11    1
    38    28    24   ar
    39    22    32    1
@<TRIPOS>MOLECULE
*****
 34 39 0 0 0
SMALL
GASTEIGER

@<TRIPOS>ATOM
      1 C         140.6048  145.4622  154.9552 C.ar    1  UNL1        0.1028
      2 C         140.1672  146.6557  155.7514 C.ar    1  UNL1        0.0131
      3 C         140.0707  146.5661  157.2456 C.ar    1  UNL1       -0.0015
      4 C         140.3411  145.4293  158.2470 C.ar    1  UNL1        0.0035
      5 C         140.5770  145.0545  156.8140 C.ar    1  UNL1        0.0358
      6 C         140.9460  144.1791  155.6531 C.ar    1  UNL1        0.1545
      7 O         141.3919  142.9363  154.9414 O.3     1  UNL1       -0.4528
      8 C         141.8469  141.5152  154.7871 C.ar    1  UNL1        0.1453
      9 C         142.2918  140.4231  153.5247 C.ar    1  UNL1        0.0406
     10 C         142.7340  138.9904  153.5668 C.ar    1  UNL1        0.0398
     11 C         142.8460  138.2784  154.8823 C.ar    1  UNL1        0.1363
     12 C         142.5161  138.9983  156.1562 C.ar    1  UNL1        0.0329
     13 C         142.2416  140.1325  155.2137 C.ar    1  UNL1        0.0378
     14 C         142.6284  138.2855  157.4713 C.3     1  UNL1        0.1046
     15 C         143.0707  136.8528  157.5124 C.3     1  UNL1        0.0718
     16 C         143.4007  136.1330  156.2385 C.3     1  UNL1        0.2075
     17 O         143.2884  136.8457  154.9235 O.3     1  UNL1       -0.4757
     18 N         142.5615  138.1026  158.9586 N.am    1  UNL1       -0.2761
     19 C         142.7907  137.0792  160.0311 C.3     1  UNL1        0.0956
     20 C         142.4823  137.7166  161.3534 C.3     1  UNL1        0.0466
     21 C         141.9566  139.3528  161.5525 C.3     1  UNL1        0.1337
     22 N         141.5107  140.5957  162.2643 N.3     1  UNL1       -0.2863
     23 C         141.0557  142.0166  162.4186 C.3     1  UNL1        0.1151
     24 C         140.6610  143.3995  161.9920 C.ar    1  UNL1        0.0739
     25 C         140.3949  143.8816  163.3872 C.ar    1  UNL1        0.1147
     26 N         139.9560  145.3137  163.3070 N.ar    1  UNL1       -0.2226
     27 C         139.9508  145.7167  161.8621 C.ar    1  UNL1        0.1786
     28 N         140.3866  144.5336  161.0494 N.ar    1  UNL1       -0.3070
     29 C         140.2742  145.2464  159.7343 C.3     1  UNL1        0.1341
     30 C         142.3256  138.4774  160.3918 C.2     1  UNL1        0.2401
     31 O         142.5412  137.7338  160.5816 O.2     1  UNL1       -0.2734
     32 H         142.3125  140.6630  162.8911 H       1  UNL1        0.1240
     33 N         140.7979  145.6413  151.9668 N.1     1  UNL1       -0.1907
     34 C         140.7013  145.5518  153.4609 C.1     1  UNL1        0.1035
@<TRIPOS>BOND
     1    33    34    3
     2    34     1    1
     3     1     2   ar
     4     2     3   ar
     5     3     4   ar
     6     4     5   ar
     7     5     6   ar
     8     6     7    1
     9     7     8    1
    10     8     9   ar
    11     9    10   ar
    12    10    11   ar
    13    11    12   ar
    14    12    13   ar
    15    12    14    1
    16    14    15    1
    17    15    16    1
    18    16    17    1
    19    14    18    1
    20    18    19    1
    21    19    20    1
    22    21    20    1
    23    21    22    1
    24    22    23    1
    25    23    24    1
    26    24    25   ar
    27    25    26   ar
    28    26    27   ar
    29    27    28   ar
    30    28    29    1
    31    21    30    1
    32    30    31    2
    33     6     1   ar
    34    13     8   ar
    35    30    18   am
    36    29     4    1
    37    17    11    1
    38    28    24   ar
    39    22    32    1
@<TRIPOS>MOLECULE
*****
 34 39 0 0 0
SMALL
GASTEIGER

@<TRIPOS>ATOM
      1 C         141.1216  143.8489  162.6377 C.ar    1  UNL1        0.1028
      2 C         140.6370  145.2673  162.5843 C.ar    1  UNL1        0.0131
      3 C         140.2844  145.8904  161.2661 C.ar    1  UNL1       -0.0015
      4 C         140.3056  145.3654  159.8197 C.ar    1  UNL1        0.0035
      5 C         140.7539  144.3645  160.8430 C.ar    1  UNL1        0.0358
      6 C         141.2537  143.0533  161.3730 C.ar    1  UNL1        0.1545
      7 O         141.7289  141.6313  161.3287 O.3     1  UNL1       -0.4528
      8 C         142.1073  140.3149  160.7170 C.ar    1  UNL1        0.1453
      9 C         142.6844  138.7663  161.2200 C.ar    1  UNL1        0.0406
     10 C         143.0164  137.5319  160.4350 C.ar    1  UNL1        0.0398
     11 C         142.8574  137.5263  158.9435 C.ar    1  UNL1        0.1363
     12 C         142.3665  138.7544  158.2360 C.ar    1  UNL1        0.0329
     13 C         142.3312  139.3048  159.6310 C.ar    1  UNL1        0.0378
     14 C         142.2078  138.7478  156.7444 C.3     1  UNL1        0.1046
     15 C         142.5401  137.5130  155.9603 C.3     1  UNL1        0.0718
     16 C         143.0310  136.2849  156.6678 C.3     1  UNL1        0.2075
     17 O         143.1896  136.2915  158.1594 O.3     1  UNL1       -0.4757
     18 N         141.8793  139.2860  155.3833 N.am    1  UNL1       -0.2761
     19 C         141.8556  138.8936  153.9357 C.3     1  UNL1        0.0956
     20 C         141.3723  140.0723  153.1439 C.3     1  UNL1        0.0466
     21 C         140.9313  141.5981  153.8300 C.3     1  UNL1        0.1337
     22 N         140.4560  143.0201  153.8743 N.3     1  UNL1       -0.2863
     23 C         140.0777  144.3364  154.4860 C.3     1  UNL1        0.1151
     24 C         139.8538  145.3467  155.5720 C.ar    1  UNL1        0.0739
     25 C         139.3893  146.4237  154.6370 C.ar    1  UNL1        0.1147
     26 N         139.0670  147.6396  155.4541 N.ar    1  UNL1       -0.2226
     27 C         139.3323  147.3140  156.8941 C.ar    1  UNL1        0.1786
     28 N         139.8185  145.8969  156.9670 N.ar    1  UNL1       -0.3070
     29 C         139.9772  145.9035  158.4586 C.3     1  UNL1        0.1341
     30 C         141.4311  140.2868  154.3599 C.2     1  UNL1        0.2401
     31 O         141.5614  139.7250  153.8096 O.2     1  UNL1       -0.2734
     32 H         139.5735  142.8615  153.3880 H       1  UNL1        0.1240
     33 N         141.8266  142.6028  165.2740 N.1     1  UNL1       -0.1907
     34 C         141.4741  143.2258  163.9559 C.1     1  UNL1        0.1035
@<TRIPOS>BOND
     1    33    34    3
     2    34     1    1
     3     1     2   ar
     4     2     3   ar
     5     3     4   ar
     6     4     5   ar
     7     5     6   ar
     8     6     7    1
     9     7     8    1
    10     8     9   ar
    11     9    10   ar
    12    10    11   ar
    13    11    12   ar
    14    12    13   ar
    15    12    14    1
    16    14    15    1
    17    15    16    1
    18    16    17    1
    19    14    18    1
    20    18    19    1
    21    19    20    1
    22    21    20    1
    23    21    22    1
    24    22    23    1
    25    23    24    1
    26    24    25   ar
    27    25    26   ar
    28    26    27   ar
    29    27    28   ar
    30    28    29    1
    31    21    30    1
    32    30    31    2
    33     6     1   ar
    34    13     8   ar
    35    30    18   am
    36    29     4    1
    37    17    11    1
    38    28    24   ar
    39    22    32    1
