@<TRIPOS>MOLECULE
*****
 46 50 0 0 0
SMALL
GASTEIGER

@<TRIPOS>ATOM
      1 O         140.4726  137.1430  163.0629 O.2     1  UNL1       -0.1499
      2 S         139.3862  137.9583  162.4265 S.O2    1  UNL1        0.0736
      3 O         138.2999  138.7736  161.7901 O.2     1  UNL1       -0.1499
      4 C         140.2517  138.1697  161.2197 C.ar    1  UNL1        0.1252
      5 C         139.6478  138.6739  159.9426 C.ar    1  UNL1        0.0202
      6 C         140.5132  138.8853  158.7358 C.ar    1  UNL1        0.0034
      7 C         141.9826  138.5924  158.8062 C.ar    1  UNL1        0.0239
      8 C         142.5866  138.0882  160.0833 C.ar    1  UNL1        0.0034
      9 C         141.7212  137.8769  161.2900 C.ar    1  UNL1        0.0202
     10 C         142.8482  138.8038  157.5994 C.ar    1  UNL1        0.1107
     11 N         143.8227  139.9264  157.3990 N.ar    1  UNL1       -0.2383
     12 C         144.4679  139.7461  156.0569 C.ar    1  UNL1        0.0883
     13 C         143.8921  138.5120  155.4278 C.ar    1  UNL1        0.0560
     14 S         142.8911  137.9297  156.3811 S.2     1  UNL1       -0.0659
     15 C         145.5065  140.6424  155.4504 C.ar    1  UNL1        0.0182
     16 C         145.8010  140.5623  153.9818 C.ar    1  UNL1        0.0015
     17 C         146.8396  141.4586  153.3752 C.ar    1  UNL1        0.0039
     18 C         147.5837  142.4350  154.2374 C.ar    1  UNL1        0.0714
     19 C         147.2892  142.5150  155.7059 C.ar    1  UNL1        0.0039
     20 C         146.2505  141.6187  156.3125 C.ar    1  UNL1        0.0015
     21 C         148.6223  143.3313  153.6308 C.3     1  UNL1        0.4186
     22 F         149.6610  144.2276  153.0243 F       1  UNL1       -0.1659
     23 F         147.7364  144.5183  153.8679 F       1  UNL1       -0.1659
     24 F         149.5082  142.1444  153.3938 F       1  UNL1       -0.1659
     25 N         138.5207  137.7470  163.6332 N.pl3   1  UNL1       -0.2150
     26 H         137.7994  137.0773  163.6104 H       1  UNL1        0.1737
     27 C         138.7541  138.5560  164.8746 C.ar    1  UNL1        0.0648
     28 C         138.1638  138.1131  166.1804 C.ar    1  UNL1        0.0155
     29 C         138.3972  138.9221  167.4218 C.ar    1  UNL1       -0.0029
     30 C         139.2210  140.1740  167.3573 C.ar    1  UNL1       -0.0207
     31 C         139.8113  140.6169  166.0514 C.ar    1  UNL1       -0.0029
     32 C         139.5779  139.8079  164.8101 C.ar    1  UNL1        0.0155
     33 C         139.4544  140.9830  168.5987 C.3     1  UNL1        0.0434
     34 C         139.1288  140.4039  169.9435 C.3     1  UNL1        0.0734
     35 N         140.1259  140.4947  171.0606 N.3     1  UNL1       -0.2949
     36 H         140.3368  139.5383  171.3455 H       1  UNL1        0.1233
     37 C         141.4413  141.1803  170.8379 C.3     1  UNL1        0.1029
     38 C         142.5869  140.4259  170.2309 C.3     1  UNL1        0.1499
     39 O         143.5094  139.6309  171.1067 O.3     1  UNL1       -0.3786
     40 H         144.1900  139.2083  170.5598 H       1  UNL1        0.2108
     41 C         142.8099  140.4664  168.7481 C.ar    1  UNL1        0.0248
     42 C         142.8378  139.1912  167.9588 C.ar    1  UNL1        0.0012
     43 C         143.0608  139.2317  166.4760 C.ar    1  UNL1        0.0204
     44 C         143.2561  140.5474  165.7827 C.ar    1  UNL1        0.0989
     45 N         143.2283  141.8226  166.5720 N.ar    1  UNL1       -0.2426
     46 C         143.0052  141.7821  168.0548 C.ar    1  UNL1        0.0969
@<TRIPOS>BOND
     1     1     2    2
     2     2     3    2
     3     2    25    1
     4    25    27    1
     5    27    28   ar
     6    28    29   ar
     7    29    30   ar
     8    30    33    1
     9    33    34    1
    10    34    35    1
    11    35    37    1
    12    37    38    1
    13    38    39    1
    14    38    41    1
    15    41    42   ar
    16    42    43   ar
    17    43    44   ar
    18    44    45   ar
    19    45    46   ar
    20    30    31   ar
    21    31    32   ar
    22     2     4    1
    23     4     5   ar
    24     5     6   ar
    25     6     7   ar
    26     7    10    1
    27    10    11   ar
    28    11    12   ar
    29    12    15    1
    30    15    16   ar
    31    16    17   ar
    32    17    18   ar
    33    18    21    1
    34    21    22    1
    35    21    23    1
    36    21    24    1
    37    18    19   ar
    38    19    20   ar
    39    12    13   ar
    40    13    14   ar
    41     7     8   ar
    42     8     9   ar
    43    32    27   ar
    44     9     4   ar
    45    46    41   ar
    46    14    10   ar
    47    20    15   ar
    48    25    26    1
    49    35    36    1
    50    39    40    1
@<TRIPOS>MOLECULE
*****
 46 50 0 0 0
SMALL
GASTEIGER

@<TRIPOS>ATOM
      1 O         140.1419  139.4387  160.5332 O.2     1  UNL1       -0.1499
      2 S         138.6749  139.5091  160.2282 S.O2    1  UNL1        0.0736
      3 O         137.2080  139.5794  159.9231 O.2     1  UNL1       -0.1499
      4 C         138.9345  140.5993  159.2311 C.ar    1  UNL1        0.1252
      5 C         139.1020  140.2632  157.7789 C.ar    1  UNL1        0.0202
      6 C         139.3616  141.3533  156.7818 C.ar    1  UNL1        0.0034
      7 C         139.4536  142.7796  157.2370 C.ar    1  UNL1        0.0239
      8 C         139.2861  143.1157  158.6892 C.ar    1  UNL1        0.0034
      9 C         139.0265  142.0256  159.6863 C.ar    1  UNL1        0.0202
     10 C         139.7132  143.8698  156.2399 C.ar    1  UNL1        0.1107
     11 N         139.3469  145.3157  156.3990 N.ar    1  UNL1       -0.2383
     12 C         139.7920  146.0450  155.1662 C.ar    1  UNL1        0.0883
     13 C         140.4334  145.0499  154.2450 C.ar    1  UNL1        0.0560
     14 S         140.3847  143.7056  154.9087 S.2     1  UNL1       -0.0659
     15 C         139.6250  147.5119  154.9009 C.ar    1  UNL1        0.0182
     16 C         138.8338  148.3606  155.8515 C.ar    1  UNL1        0.0015
     17 C         138.6667  149.8275  155.5863 C.ar    1  UNL1        0.0039
     18 C         139.2911  150.4456  154.3705 C.ar    1  UNL1        0.0714
     19 C         140.0823  149.5970  153.4199 C.ar    1  UNL1        0.0039
     20 C         140.2493  148.1301  153.6851 C.ar    1  UNL1        0.0015
     21 C         139.1241  151.9125  154.1052 C.3     1  UNL1        0.4186
     22 F         138.9571  153.3794  153.8400 F       1  UNL1       -0.1659
     23 F         138.0770  151.9871  155.1767 F       1  UNL1       -0.1659
     24 F         140.1711  151.8380  153.0338 F       1  UNL1       -0.1659
     25 N         138.4153  138.4189  161.2252 N.pl3   1  UNL1       -0.2150
     26 H         138.1874  137.5126  160.9154 H       1  UNL1        0.1737
     27 C         138.5029  138.7095  162.6942 C.ar    1  UNL1        0.0648
     28 C         139.0368  137.6695  163.6340 C.ar    1  UNL1        0.0155
     29 C         139.1243  137.9602  165.1029 C.ar    1  UNL1       -0.0029
     30 C         138.6780  139.2909  165.6320 C.ar    1  UNL1       -0.0207
     31 C         138.1441  140.3309  164.6922 C.ar    1  UNL1       -0.0029
     32 C         138.0566  140.0402  163.2233 C.ar    1  UNL1        0.0155
     33 C         138.7656  139.5815  167.1011 C.3     1  UNL1        0.0434
     34 C         140.0652  140.0304  167.7006 C.3     1  UNL1        0.0734
     35 N         140.1122  141.2657  168.5502 N.3     1  UNL1       -0.2949
     36 H         140.6218  141.0202  169.3989 H       1  UNL1        0.1233
     37 C         140.7388  142.5197  168.0164 C.3     1  UNL1        0.1029
     38 C         141.3177  142.5385  166.6328 C.3     1  UNL1        0.1499
     39 O         142.7147  142.0453  166.3975 O.3     1  UNL1       -0.3786
     40 H         142.9316  142.1259  165.4555 H       1  UNL1        0.2108
     41 C         140.4997  143.0504  165.4844 C.ar    1  UNL1        0.0248
     42 C         139.2733  143.8738  165.7453 C.ar    1  UNL1        0.0012
     43 C         138.4553  144.3857  164.5970 C.ar    1  UNL1        0.0204
     44 C         138.8637  144.0743  163.1877 C.ar    1  UNL1        0.0989
     45 N         140.0901  143.2510  162.9267 N.ar    1  UNL1       -0.2426
     46 C         140.9081  142.7391  164.0750 C.ar    1  UNL1        0.0969
@<TRIPOS>BOND
     1     1     2    2
     2     2     3    2
     3     2    25    1
     4    25    27    1
     5    27    28   ar
     6    28    29   ar
     7    29    30   ar
     8    30    33    1
     9    33    34    1
    10    34    35    1
    11    35    37    1
    12    37    38    1
    13    38    39    1
    14    38    41    1
    15    41    42   ar
    16    42    43   ar
    17    43    44   ar
    18    44    45   ar
    19    45    46   ar
    20    30    31   ar
    21    31    32   ar
    22     2     4    1
    23     4     5   ar
    24     5     6   ar
    25     6     7   ar
    26     7    10    1
    27    10    11   ar
    28    11    12   ar
    29    12    15    1
    30    15    16   ar
    31    16    17   ar
    32    17    18   ar
    33    18    21    1
    34    21    22    1
    35    21    23    1
    36    21    24    1
    37    18    19   ar
    38    19    20   ar
    39    12    13   ar
    40    13    14   ar
    41     7     8   ar
    42     8     9   ar
    43    32    27   ar
    44     9     4   ar
    45    46    41   ar
    46    14    10   ar
    47    20    15   ar
    48    25    26    1
    49    35    36    1
    50    39    40    1
@<TRIPOS>MOLECULE
*****
 46 50 0 0 0
SMALL
GASTEIGER

@<TRIPOS>ATOM
      1 O         140.3941  137.3496  162.3068 O.2     1  UNL1       -0.1499
      2 S         139.3720  138.2011  161.6138 S.O2    1  UNL1        0.0736
      3 O         138.3498  139.0525  160.9209 O.2     1  UNL1       -0.1499
      4 C         140.3089  138.3842  160.4568 C.ar    1  UNL1        0.1252
      5 C         139.7724  138.7774  159.1123 C.ar    1  UNL1        0.0202
      6 C         140.7093  138.9606  157.9553 C.ar    1  UNL1        0.0034
      7 C         142.1826  138.7506  158.1428 C.ar    1  UNL1        0.0239
      8 C         142.7191  138.3574  159.4873 C.ar    1  UNL1        0.0034
      9 C         141.7822  138.1742  160.6443 C.ar    1  UNL1        0.0202
     10 C         143.1196  138.9338  156.9857 C.ar    1  UNL1        0.1107
     11 N         144.1365  140.0266  156.8392 N.ar    1  UNL1       -0.2383
     12 C         144.8495  139.8245  155.5350 C.ar    1  UNL1        0.0883
     13 C         144.2731  138.6067  154.8755 C.ar    1  UNL1        0.0560
     14 S         143.2040  138.0562  155.7721 S.2     1  UNL1       -0.0659
     15 C         145.9462  140.6884  154.9866 C.ar    1  UNL1        0.0182
     16 C         146.6936  141.6185  155.8955 C.ar    1  UNL1        0.0015
     17 C         147.7904  142.4825  155.3471 C.ar    1  UNL1        0.0039
     18 C         148.1397  142.4163  153.8898 C.ar    1  UNL1        0.0714
     19 C         147.3923  141.4861  152.9810 C.ar    1  UNL1        0.0039
     20 C         146.2955  140.6222  153.5294 C.ar    1  UNL1        0.0015
     21 C         149.2364  143.2802  153.3414 C.3     1  UNL1        0.4186
     22 F         150.3332  144.1442  152.7930 F       1  UNL1       -0.1659
     23 F         148.3665  144.4907  153.5087 F       1  UNL1       -0.1659
     24 F         150.1063  142.0698  153.1741 F       1  UNL1       -0.1659
     25 N         138.4350  138.0179  162.7708 N.pl3   1  UNL1       -0.2150
     26 H         137.6115  137.4903  162.6585 H       1  UNL1        0.1737
     27 C         138.7529  138.6387  164.0988 C.ar    1  UNL1        0.0648
     28 C         138.5132  137.8684  165.3634 C.ar    1  UNL1        0.0155
     29 C         138.8310  138.4891  166.6914 C.ar    1  UNL1       -0.0029
     30 C         139.3886  139.8802  166.7548 C.ar    1  UNL1       -0.0207
     31 C         139.6283  140.6505  165.4903 C.ar    1  UNL1       -0.0029
     32 C         139.3104  140.0298  164.1623 C.ar    1  UNL1        0.0155
     33 C         139.7064  140.5010  168.0829 C.3     1  UNL1        0.0434
     34 C         140.9921  140.1657  168.7790 C.3     1  UNL1        0.0734
     35 N         142.3018  140.3813  168.0802 N.3     1  UNL1       -0.2949
     36 H         142.9602  140.7138  168.7847 H       1  UNL1        0.1233
     37 C         142.9684  139.2419  167.3680 C.3     1  UNL1        0.1029
     38 C         142.9406  139.1749  165.8698 C.3     1  UNL1        0.1499
     39 O         142.1794  138.0807  165.1819 O.3     1  UNL1       -0.3786
     40 H         142.2637  138.1828  164.2210 H       1  UNL1        0.2108
     41 C         143.6741  140.2022  165.0593 C.ar    1  UNL1        0.0248
     42 C         143.1704  141.6140  165.0048 C.ar    1  UNL1        0.0012
     43 C         143.9038  142.6412  164.1944 C.ar    1  UNL1        0.0204
     44 C         145.1410  142.2567  163.4385 C.ar    1  UNL1        0.0989
     45 N         145.6448  140.8448  163.4931 N.ar    1  UNL1       -0.2426
     46 C         144.9114  139.8176  164.3035 C.ar    1  UNL1        0.0969
@<TRIPOS>BOND
     1     1     2    2
     2     2     3    2
     3     2    25    1
     4    25    27    1
     5    27    28   ar
     6    28    29   ar
     7    29    30   ar
     8    30    33    1
     9    33    34    1
    10    34    35    1
    11    35    37    1
    12    37    38    1
    13    38    39    1
    14    38    41    1
    15    41    42   ar
    16    42    43   ar
    17    43    44   ar
    18    44    45   ar
    19    45    46   ar
    20    30    31   ar
    21    31    32   ar
    22     2     4    1
    23     4     5   ar
    24     5     6   ar
    25     6     7   ar
    26     7    10    1
    27    10    11   ar
    28    11    12   ar
    29    12    15    1
    30    15    16   ar
    31    16    17   ar
    32    17    18   ar
    33    18    21    1
    34    21    22    1
    35    21    23    1
    36    21    24    1
    37    18    19   ar
    38    19    20   ar
    39    12    13   ar
    40    13    14   ar
    41     7     8   ar
    42     8     9   ar
    43    32    27   ar
    44     9     4   ar
    45    46    41   ar
    46    14    10   ar
    47    20    15   ar
    48    25    26    1
    49    35    36    1
    50    39    40    1
@<TRIPOS>MOLECULE
*****
 46 50 0 0 0
SMALL
GASTEIGER

@<TRIPOS>ATOM
      1 O         145.0269  140.1105  162.7116 O.2     1  UNL1       -0.1499
      2 S         143.8090  140.9453  162.4477 S.O2    1  UNL1        0.0736
      3 O         142.5911  141.7801  162.1838 O.2     1  UNL1       -0.1499
      4 C         143.4374  140.0431  161.3084 C.ar    1  UNL1        0.1252
      5 C         143.1917  140.6188  159.9452 C.ar    1  UNL1        0.0202
      6 C         142.8201  139.7167  158.8059 C.ar    1  UNL1        0.0034
      7 C         142.6943  138.2388  159.0297 C.ar    1  UNL1        0.0239
      8 C         142.9400  137.6631  160.3929 C.ar    1  UNL1        0.0034
      9 C         143.3115  138.5653  161.5322 C.ar    1  UNL1        0.0202
     10 C         142.3227  137.3366  157.8904 C.ar    1  UNL1        0.1107
     11 N         142.9771  136.0304  157.5505 N.ar    1  UNL1       -0.2383
     12 C         142.2903  135.4688  156.3410 C.ar    1  UNL1        0.0883
     13 C         141.2114  136.4279  155.9334 C.ar    1  UNL1        0.0560
     14 S         141.2314  137.5823  156.8910 S.2     1  UNL1       -0.0659
     15 C         142.6238  134.1751  155.6589 C.ar    1  UNL1        0.0182
     16 C         141.7732  133.6840  154.5253 C.ar    1  UNL1        0.0015
     17 C         142.1066  132.3904  153.8431 C.ar    1  UNL1        0.0039
     18 C         143.2909  131.5880  154.2946 C.ar    1  UNL1        0.0714
     19 C         144.1415  132.0791  155.4282 C.ar    1  UNL1        0.0039
     20 C         143.8080  133.3727  156.1104 C.ar    1  UNL1        0.0015
     21 C         143.6244  130.2943  153.6125 C.3     1  UNL1        0.4186
     22 F         143.9579  129.0007  152.9304 F       1  UNL1       -0.1659
     23 F         144.0256  131.0481  152.3792 F       1  UNL1       -0.1659
     24 F         143.2232  129.5406  154.8457 F       1  UNL1       -0.1659
     25 N         144.1805  141.8475  163.5870 N.pl3   1  UNL1       -0.2150
     26 H         144.7363  142.6435  163.4234 H       1  UNL1        0.1737
     27 C         143.7053  141.5369  164.9754 C.ar    1  UNL1        0.0648
     28 C         143.6538  142.6211  166.0106 C.ar    1  UNL1        0.0155
     29 C         143.1786  142.3105  167.3990 C.ar    1  UNL1       -0.0029
     30 C         142.7548  140.9156  167.7522 C.ar    1  UNL1       -0.0207
     31 C         142.8062  139.8314  166.7169 C.ar    1  UNL1       -0.0029
     32 C         143.2814  140.1420  165.3286 C.ar    1  UNL1        0.0155
     33 C         142.2796  140.6050  169.1406 C.3     1  UNL1        0.0434
     34 C         141.2502  139.5362  169.3594 C.3     1  UNL1        0.0734
     35 N         139.7928  139.8552  169.2033 N.3     1  UNL1       -0.2949
     36 H         139.6027  140.6619  169.7978 H       1  UNL1        0.1233
     37 C         139.2362  140.1754  167.8478 C.3     1  UNL1        0.1029
     38 C         138.4236  139.1530  167.1101 C.3     1  UNL1        0.1499
     39 O         137.4656  138.2741  167.8584 O.3     1  UNL1       -0.3786
     40 H         137.0242  137.6742  167.2369 H       1  UNL1        0.2108
     41 C         138.5689  139.0093  165.6240 C.ar    1  UNL1        0.0248
     42 C         139.1352  137.7470  165.0444 C.ar    1  UNL1        0.0012
     43 C         139.2805  137.6033  163.5584 C.ar    1  UNL1        0.0204
     44 C         138.8596  138.7219  162.6521 C.ar    1  UNL1        0.0989
     45 N         138.2934  139.9842  163.2317 N.ar    1  UNL1       -0.2426
     46 C         138.1480  140.1279  164.7177 C.ar    1  UNL1        0.0969
@<TRIPOS>BOND
     1     1     2    2
     2     2     3    2
     3     2    25    1
     4    25    27    1
     5    27    28   ar
     6    28    29   ar
     7    29    30   ar
     8    30    33    1
     9    33    34    1
    10    34    35    1
    11    35    37    1
    12    37    38    1
    13    38    39    1
    14    38    41    1
    15    41    42   ar
    16    42    43   ar
    17    43    44   ar
    18    44    45   ar
    19    45    46   ar
    20    30    31   ar
    21    31    32   ar
    22     2     4    1
    23     4     5   ar
    24     5     6   ar
    25     6     7   ar
    26     7    10    1
    27    10    11   ar
    28    11    12   ar
    29    12    15    1
    30    15    16   ar
    31    16    17   ar
    32    17    18   ar
    33    18    21    1
    34    21    22    1
    35    21    23    1
    36    21    24    1
    37    18    19   ar
    38    19    20   ar
    39    12    13   ar
    40    13    14   ar
    41     7     8   ar
    42     8     9   ar
    43    32    27   ar
    44     9     4   ar
    45    46    41   ar
    46    14    10   ar
    47    20    15   ar
    48    25    26    1
    49    35    36    1
    50    39    40    1
@<TRIPOS>MOLECULE
*****
 46 50 0 0 0
SMALL
GASTEIGER

@<TRIPOS>ATOM
      1 O         140.5305  139.3628  160.3374 O.2     1  UNL1       -0.1499
      2 S         139.0508  139.4283  160.1005 S.O2    1  UNL1        0.0736
      3 O         137.5711  139.4938  159.8636 O.2     1  UNL1       -0.1499
      4 C         139.2498  140.5953  159.1794 C.ar    1  UNL1        0.1252
      5 C         138.0788  141.4426  158.7784 C.ar    1  UNL1        0.0202
      6 C         138.2778  142.6096  157.8573 C.ar    1  UNL1        0.0034
      7 C         139.6479  142.9293  157.3371 C.ar    1  UNL1        0.0239
      8 C         140.8189  142.0820  157.7380 C.ar    1  UNL1        0.0034
      9 C         140.6199  140.9150  158.6592 C.ar    1  UNL1        0.0202
     10 C         139.8470  144.0963  156.4159 C.ar    1  UNL1        0.1107
     11 N         139.3526  145.4940  156.6440 N.ar    1  UNL1       -0.2383
     12 C         139.7754  146.3319  155.4740 C.ar    1  UNL1        0.0883
     13 C         140.5313  145.4522  154.5228 C.ar    1  UNL1        0.0560
     14 S         140.5754  144.0705  155.1049 S.2     1  UNL1       -0.0659
     15 C         139.4923  147.7932  155.2879 C.ar    1  UNL1        0.0182
     16 C         138.7858  148.5632  156.3639 C.ar    1  UNL1        0.0015
     17 C         138.5026  150.0244  156.1779 C.ar    1  UNL1        0.0039
     18 C         138.9259  150.7156  154.9156 C.ar    1  UNL1        0.0714
     19 C         139.6324  149.9456  153.8396 C.ar    1  UNL1        0.0039
     20 C         139.9156  148.4844  154.0257 C.ar    1  UNL1        0.0015
     21 C         138.6428  152.1768  154.7295 C.3     1  UNL1        0.4186
     22 F         138.3596  153.6380  154.5433 F       1  UNL1       -0.1659
     23 F         138.7049  152.3780  156.2146 F       1  UNL1       -0.1659
     24 F         138.5807  151.9756  153.2444 F       1  UNL1       -0.1659
     25 N         138.8516  138.2613  161.0216 N.pl3   1  UNL1       -0.2150
     26 H         138.8017  137.3486  160.6561 H       1  UNL1        0.1737
     27 C         138.7286  138.4850  162.4998 C.ar    1  UNL1        0.0648
     28 C         138.9898  137.3570  163.4534 C.ar    1  UNL1        0.0155
     29 C         138.8667  137.5807  164.9314 C.ar    1  UNL1       -0.0029
     30 C         138.4825  138.9325  165.4560 C.ar    1  UNL1       -0.0207
     31 C         138.2213  140.0605  164.5024 C.ar    1  UNL1       -0.0029
     32 C         138.3444  139.8368  163.0244 C.ar    1  UNL1        0.0155
     33 C         138.3595  139.1561  166.9341 C.3     1  UNL1        0.0434
     34 C         139.4377  139.8912  167.6737 C.3     1  UNL1        0.0734
     35 N         140.8770  139.6768  167.3096 N.3     1  UNL1       -0.2949
     36 H         140.8924  138.9725  166.5720 H       1  UNL1        0.1233
     37 C         141.7079  140.8283  166.8263 C.3     1  UNL1        0.1029
     38 C         141.6282  141.2608  165.3922 C.3     1  UNL1        0.1499
     39 O         140.7245  142.3916  164.9990 O.3     1  UNL1       -0.3786
     40 H         140.7917  142.5417  164.0430 H       1  UNL1        0.2108
     41 C         142.4522  140.5624  164.3513 C.ar    1  UNL1        0.0248
     42 C         142.0826  139.1784  163.9064 C.ar    1  UNL1        0.0012
     43 C         142.9065  138.4801  162.8656 C.ar    1  UNL1        0.0204
     44 C         144.1001  139.1657  162.2697 C.ar    1  UNL1        0.0989
     45 N         144.4698  140.5497  162.7146 N.ar    1  UNL1       -0.2426
     46 C         143.6458  141.2480  163.7554 C.ar    1  UNL1        0.0969
@<TRIPOS>BOND
     1     1     2    2
     2     2     3    2
     3     2    25    1
     4    25    27    1
     5    27    28   ar
     6    28    29   ar
     7    29    30   ar
     8    30    33    1
     9    33    34    1
    10    34    35    1
    11    35    37    1
    12    37    38    1
    13    38    39    1
    14    38    41    1
    15    41    42   ar
    16    42    43   ar
    17    43    44   ar
    18    44    45   ar
    19    45    46   ar
    20    30    31   ar
    21    31    32   ar
    22     2     4    1
    23     4     5   ar
    24     5     6   ar
    25     6     7   ar
    26     7    10    1
    27    10    11   ar
    28    11    12   ar
    29    12    15    1
    30    15    16   ar
    31    16    17   ar
    32    17    18   ar
    33    18    21    1
    34    21    22    1
    35    21    23    1
    36    21    24    1
    37    18    19   ar
    38    19    20   ar
    39    12    13   ar
    40    13    14   ar
    41     7     8   ar
    42     8     9   ar
    43    32    27   ar
    44     9     4   ar
    45    46    41   ar
    46    14    10   ar
    47    20    15   ar
    48    25    26    1
    49    35    36    1
    50    39    40    1
@<TRIPOS>MOLECULE
*****
 46 50 0 0 0
SMALL
GASTEIGER

@<TRIPOS>ATOM
      1 O         138.7245  140.6994  160.1561 O.2     1  UNL1       -0.1499
      2 S         139.5037  141.7011  159.3565 S.O2    1  UNL1        0.0736
      3 O         140.2828  142.7028  158.5568 O.2     1  UNL1       -0.1499
      4 C         140.2895  140.5884  158.7283 C.ar    1  UNL1        0.1252
      5 C         139.6029  139.3136  158.3367 C.ar    1  UNL1        0.0202
      6 C         140.3886  138.2009  157.7085 C.ar    1  UNL1        0.0034
      7 C         141.8609  138.3631  157.4719 C.ar    1  UNL1        0.0239
      8 C         142.5474  139.6380  157.8635 C.ar    1  UNL1        0.0034
      9 C         141.7617  140.7507  158.4916 C.ar    1  UNL1        0.0202
     10 C         142.6466  137.2505  156.8437 C.ar    1  UNL1        0.1107
     11 N         142.6635  135.8197  157.2937 N.ar    1  UNL1       -0.2383
     12 C         143.5808  135.0582  156.3833 C.ar    1  UNL1        0.0883
     13 C         144.1308  136.0184  155.3706 C.ar    1  UNL1        0.0560
     14 S         143.5535  137.3733  155.6552 S.2     1  UNL1       -0.0659
     15 C         143.8932  133.5937  156.4703 C.ar    1  UNL1        0.0182
     16 C         144.5205  133.0332  157.7122 C.ar    1  UNL1        0.0015
     17 C         144.8329  131.5687  157.7993 C.ar    1  UNL1        0.0039
     18 C         144.5180  130.6647  156.6443 C.ar    1  UNL1        0.0714
     19 C         143.8908  131.2252  155.4025 C.ar    1  UNL1        0.0039
     20 C         143.5784  132.6898  155.3155 C.ar    1  UNL1        0.0015
     21 C         144.8304  129.2002  156.7313 C.3     1  UNL1        0.4186
     22 F         145.1429  127.7356  156.8183 F       1  UNL1       -0.1659
     23 F         144.9438  129.3130  158.2228 F       1  UNL1       -0.1659
     24 F         144.7171  129.0874  155.2399 F       1  UNL1       -0.1659
     25 N         138.7180  142.8138  159.9846 N.pl3   1  UNL1       -0.2150
     26 H         138.0729  143.3262  159.4456 H       1  UNL1        0.1737
     27 C         138.9150  143.1457  161.4341 C.ar    1  UNL1        0.0648
     28 C         140.2569  143.6048  161.9227 C.ar    1  UNL1        0.0155
     29 C         140.4539  143.9367  163.3722 C.ar    1  UNL1       -0.0029
     30 C         139.3091  143.8096  164.3330 C.ar    1  UNL1       -0.0207
     31 C         137.9673  143.3505  163.8445 C.ar    1  UNL1       -0.0029
     32 C         137.7702  143.0186  162.3950 C.ar    1  UNL1        0.0155
     33 C         139.5062  144.1416  165.7826 C.3     1  UNL1        0.0434
     34 C         140.0198  143.0966  166.7282 C.3     1  UNL1        0.0734
     35 N         140.7567  141.9024  166.1980 N.3     1  UNL1       -0.2949
     36 H         141.6291  141.8381  166.7225 H       1  UNL1        0.1233
     37 C         140.1201  140.5452  166.2483 C.3     1  UNL1        0.1029
     38 C         139.2696  140.0730  165.1065 C.3     1  UNL1        0.1499
     39 O         137.7784  140.2217  165.1705 O.3     1  UNL1       -0.3786
     40 H         137.3831  139.8690  164.3579 H       1  UNL1        0.2108
     41 C         139.9104  139.4520  163.9007 C.ar    1  UNL1        0.0248
     42 C         140.9940  140.1845  163.1663 C.ar    1  UNL1        0.0012
     43 C         141.6348  139.5636  161.9606 C.ar    1  UNL1        0.0204
     44 C         141.1919  138.2102  161.4892 C.ar    1  UNL1        0.0989
     45 N         140.1083  137.4777  162.2236 N.ar    1  UNL1       -0.2426
     46 C         139.4676  138.0987  163.4293 C.ar    1  UNL1        0.0969
@<TRIPOS>BOND
     1     1     2    2
     2     2     3    2
     3     2    25    1
     4    25    27    1
     5    27    28   ar
     6    28    29   ar
     7    29    30   ar
     8    30    33    1
     9    33    34    1
    10    34    35    1
    11    35    37    1
    12    37    38    1
    13    38    39    1
    14    38    41    1
    15    41    42   ar
    16    42    43   ar
    17    43    44   ar
    18    44    45   ar
    19    45    46   ar
    20    30    31   ar
    21    31    32   ar
    22     2     4    1
    23     4     5   ar
    24     5     6   ar
    25     6     7   ar
    26     7    10    1
    27    10    11   ar
    28    11    12   ar
    29    12    15    1
    30    15    16   ar
    31    16    17   ar
    32    17    18   ar
    33    18    21    1
    34    21    22    1
    35    21    23    1
    36    21    24    1
    37    18    19   ar
    38    19    20   ar
    39    12    13   ar
    40    13    14   ar
    41     7     8   ar
    42     8     9   ar
    43    32    27   ar
    44     9     4   ar
    45    46    41   ar
    46    14    10   ar
    47    20    15   ar
    48    25    26    1
    49    35    36    1
    50    39    40    1
@<TRIPOS>MOLECULE
*****
 46 50 0 0 0
SMALL
GASTEIGER

@<TRIPOS>ATOM
      1 O         144.3832  140.4537  161.6273 O.2     1  UNL1       -0.1499
      2 S         143.6444  141.3493  160.6777 S.O2    1  UNL1        0.0736
      3 O         142.9055  142.2449  159.7280 O.2     1  UNL1       -0.1499
      4 C         143.3781  140.1776  159.7797 C.ar    1  UNL1        0.1252
      5 C         143.3324  140.3676  158.2925 C.ar    1  UNL1        0.0202
      6 C         143.0662  139.1960  157.3945 C.ar    1  UNL1        0.0034
      7 C         142.8457  137.8343  157.9838 C.ar    1  UNL1        0.0239
      8 C         142.8914  137.6443  159.4710 C.ar    1  UNL1        0.0034
      9 C         143.1576  138.8159  160.3690 C.ar    1  UNL1        0.0202
     10 C         142.5794  136.6626  157.0858 C.ar    1  UNL1        0.1107
     11 N         143.4407  135.4420  156.9503 N.ar    1  UNL1       -0.2383
     12 C         142.7987  134.5309  155.9465 C.ar    1  UNL1        0.0883
     13 C         141.5406  135.1883  155.4616 C.ar    1  UNL1        0.0560
     14 S         141.4051  136.5058  156.1658 S.2     1  UNL1       -0.0659
     15 C         143.3228  133.1965  155.5051 C.ar    1  UNL1        0.0182
     16 C         142.8139  132.5723  154.2397 C.ar    1  UNL1        0.0015
     17 C         143.3379  131.2379  153.7981 C.ar    1  UNL1        0.0039
     18 C         144.3709  130.5278  154.6222 C.ar    1  UNL1        0.0714
     19 C         144.8797  131.1521  155.8876 C.ar    1  UNL1        0.0039
     20 C         144.3556  132.4864  156.3290 C.ar    1  UNL1        0.0015
     21 C         144.8949  129.1935  154.1807 C.3     1  UNL1        0.4186
     22 F         145.4190  127.8591  153.7393 F       1  UNL1       -0.1659
     23 F         145.0025  128.7618  155.6133 F       1  UNL1       -0.1659
     24 F         144.7873  129.6251  152.7483 F       1  UNL1       -0.1659
     25 N         143.9106  142.5210  161.5755 N.pl3   1  UNL1       -0.2150
     26 H         144.8030  142.9364  161.5912 H       1  UNL1        0.1737
     27 C         142.8170  143.0598  162.4496 C.ar    1  UNL1        0.0648
     28 C         142.4585  144.5152  162.3911 C.ar    1  UNL1        0.0155
     29 C         141.3650  145.0539  163.2651 C.ar    1  UNL1       -0.0029
     30 C         140.6300  144.1373  164.1976 C.ar    1  UNL1       -0.0207
     31 C         140.9885  142.6820  164.2562 C.ar    1  UNL1       -0.0029
     32 C         142.0820  142.1433  163.3821 C.ar    1  UNL1        0.0155
     33 C         139.5365  144.6762  165.0717 C.3     1  UNL1        0.0434
     34 C         138.1056  144.3332  164.7801 C.3     1  UNL1        0.0734
     35 N         137.6999  143.9226  163.3956 N.3     1  UNL1       -0.2949
     36 H         138.4812  144.1495  162.7803 H       1  UNL1        0.1233
     37 C         137.3276  142.4970  163.1149 C.3     1  UNL1        0.1029
     38 C         138.1017  141.7049  162.1033 C.3     1  UNL1        0.1499
     39 O         138.3706  142.2819  160.7451 O.3     1  UNL1       -0.3786
     40 H         138.8789  141.6456  160.2183 H       1  UNL1        0.2108
     41 C         138.6071  140.3358  162.4500 C.ar    1  UNL1        0.0248
     42 C         139.3192  139.5151  161.4159 C.ar    1  UNL1        0.0012
     43 C         139.8245  138.1460  161.7625 C.ar    1  UNL1        0.0204
     44 C         139.6177  137.5976  163.1432 C.ar    1  UNL1        0.0989
     45 N         138.9055  138.4182  164.1773 N.ar    1  UNL1       -0.2426
     46 C         138.4002  139.7873  163.8307 C.ar    1  UNL1        0.0969
@<TRIPOS>BOND
     1     1     2    2
     2     2     3    2
     3     2    25    1
     4    25    27    1
     5    27    28   ar
     6    28    29   ar
     7    29    30   ar
     8    30    33    1
     9    33    34    1
    10    34    35    1
    11    35    37    1
    12    37    38    1
    13    38    39    1
    14    38    41    1
    15    41    42   ar
    16    42    43   ar
    17    43    44   ar
    18    44    45   ar
    19    45    46   ar
    20    30    31   ar
    21    31    32   ar
    22     2     4    1
    23     4     5   ar
    24     5     6   ar
    25     6     7   ar
    26     7    10    1
    27    10    11   ar
    28    11    12   ar
    29    12    15    1
    30    15    16   ar
    31    16    17   ar
    32    17    18   ar
    33    18    21    1
    34    21    22    1
    35    21    23    1
    36    21    24    1
    37    18    19   ar
    38    19    20   ar
    39    12    13   ar
    40    13    14   ar
    41     7     8   ar
    42     8     9   ar
    43    32    27   ar
    44     9     4   ar
    45    46    41   ar
    46    14    10   ar
    47    20    15   ar
    48    25    26    1
    49    35    36    1
    50    39    40    1
@<TRIPOS>MOLECULE
*****
 46 50 0 0 0
SMALL
GASTEIGER

@<TRIPOS>ATOM
      1 O         141.0053  137.8003  157.4565 O.2     1  UNL1       -0.1499
      2 S         142.4321  138.0922  157.0975 S.O2    1  UNL1        0.0736
      3 O         143.8589  138.3841  156.7384 O.2     1  UNL1       -0.1499
      4 C         142.6525  138.6871  158.4568 C.ar    1  UNL1        0.1252
      5 C         142.9136  137.7936  159.6330 C.ar    1  UNL1        0.0202
      6 C         143.1340  138.3884  160.9923 C.ar    1  UNL1        0.0034
      7 C         143.0932  139.8766  161.1753 C.ar    1  UNL1        0.0239
      8 C         142.8321  140.7701  159.9990 C.ar    1  UNL1        0.0034
      9 C         142.6117  140.1753  158.6398 C.ar    1  UNL1        0.0202
     10 C         143.3136  140.4715  162.5346 C.ar    1  UNL1        0.1107
     11 N         142.2533  140.7456  163.5595 N.ar    1  UNL1       -0.2383
     12 C         142.9174  141.3402  164.7659 C.ar    1  UNL1        0.0883
     13 C         144.3882  141.4336  164.4866 C.ar    1  UNL1        0.0560
     14 S         144.6331  140.8967  163.1075 S.2     1  UNL1       -0.0659
     15 C         142.2312  141.7666  166.0298 C.ar    1  UNL1        0.0182
     16 C         140.8915  142.4382  165.9659 C.ar    1  UNL1        0.0015
     17 C         140.2052  142.8646  167.2297 C.ar    1  UNL1        0.0039
     18 C         140.8588  142.6193  168.5575 C.ar    1  UNL1        0.0714
     19 C         142.1984  141.9477  168.6213 C.ar    1  UNL1        0.0039
     20 C         142.8847  141.5213  167.3575 C.ar    1  UNL1        0.0015
     21 C         140.1726  143.0456  169.8213 C.3     1  UNL1        0.4186
     22 F         139.4864  143.4720  171.0852 F       1  UNL1       -0.1659
     23 F         141.1043  144.2160  169.9324 F       1  UNL1       -0.1659
     24 F         139.2410  141.8754  169.7103 F       1  UNL1       -0.1659
     25 N         142.2117  137.4974  155.7382 N.pl3   1  UNL1       -0.2150
     26 H         142.1739  138.0806  154.9459 H       1  UNL1        0.1737
     27 C         142.0491  136.0139  155.5861 C.ar    1  UNL1        0.0648
     28 C         142.6693  135.0849  156.5872 C.ar    1  UNL1        0.0155
     29 C         142.5066  133.6015  156.4350 C.ar    1  UNL1       -0.0029
     30 C         141.7239  133.0473  155.2817 C.ar    1  UNL1       -0.0207
     31 C         141.1038  133.9763  154.2806 C.ar    1  UNL1       -0.0029
     32 C         141.2664  135.4597  154.4328 C.ar    1  UNL1        0.0155
     33 C         141.5613  131.5638  155.1295 C.3     1  UNL1        0.0434
     34 C         141.2592  130.9767  153.7827 C.3     1  UNL1        0.0734
     35 N         142.2013  129.9837  153.1689 N.3     1  UNL1       -0.2949
     36 H         141.7831  129.6872  152.2871 H       1  UNL1        0.1233
     37 C         143.6158  130.3802  152.8657 C.3     1  UNL1        0.1029
     38 C         144.7498  129.7435  153.6131 C.3     1  UNL1        0.1499
     39 O         145.9058  129.1532  152.8614 O.3     1  UNL1       -0.3786
     40 H         146.5464  128.7854  153.4901 H       1  UNL1        0.2108
     41 C         144.7277  129.6970  155.1122 C.ar    1  UNL1        0.0248
     42 C         144.8719  130.9628  155.9040 C.ar    1  UNL1        0.0012
     43 C         144.8498  130.9164  157.4031 C.ar    1  UNL1        0.0204
     44 C         144.6836  129.6042  158.1104 C.ar    1  UNL1        0.0989
     45 N         144.5395  128.3383  157.3186 N.ar    1  UNL1       -0.2426
     46 C         144.5615  128.3848  155.8196 C.ar    1  UNL1        0.0969
@<TRIPOS>BOND
     1     1     2    2
     2     2     3    2
     3     2    25    1
     4    25    27    1
     5    27    28   ar
     6    28    29   ar
     7    29    30   ar
     8    30    33    1
     9    33    34    1
    10    34    35    1
    11    35    37    1
    12    37    38    1
    13    38    39    1
    14    38    41    1
    15    41    42   ar
    16    42    43   ar
    17    43    44   ar
    18    44    45   ar
    19    45    46   ar
    20    30    31   ar
    21    31    32   ar
    22     2     4    1
    23     4     5   ar
    24     5     6   ar
    25     6     7   ar
    26     7    10    1
    27    10    11   ar
    28    11    12   ar
    29    12    15    1
    30    15    16   ar
    31    16    17   ar
    32    17    18   ar
    33    18    21    1
    34    21    22    1
    35    21    23    1
    36    21    24    1
    37    18    19   ar
    38    19    20   ar
    39    12    13   ar
    40    13    14   ar
    41     7     8   ar
    42     8     9   ar
    43    32    27   ar
    44     9     4   ar
    45    46    41   ar
    46    14    10   ar
    47    20    15   ar
    48    25    26    1
    49    35    36    1
    50    39    40    1
@<TRIPOS>MOLECULE
*****
 46 50 0 0 0
SMALL
GASTEIGER

@<TRIPOS>ATOM
      1 O         140.5574  137.6471  156.2016 O.2     1  UNL1       -0.1499
      2 S         141.9617  137.5683  156.7229 S.O2    1  UNL1        0.0736
      3 O         143.3659  137.4895  157.2442 O.2     1  UNL1       -0.1499
      4 C         141.4724  137.9262  158.0950 C.ar    1  UNL1        0.1252
      5 C         142.4326  137.9668  159.2467 C.ar    1  UNL1        0.0202
      6 C         141.9434  138.3247  160.6187 C.ar    1  UNL1        0.0034
      7 C         140.4940  138.6419  160.8391 C.ar    1  UNL1        0.0239
      8 C         139.5338  138.6013  159.6874 C.ar    1  UNL1        0.0034
      9 C         140.0230  138.2434  158.3154 C.ar    1  UNL1        0.0202
     10 C         140.0048  138.9999  162.2112 C.ar    1  UNL1        0.1107
     11 N         140.8449  139.0931  163.4503 N.ar    1  UNL1       -0.2383
     12 C         139.9488  139.4782  164.5900 C.ar    1  UNL1        0.0883
     13 C         138.5548  139.6230  164.0552 C.ar    1  UNL1        0.0560
     14 S         138.5895  139.3273  162.5850 S.2     1  UNL1       -0.0659
     15 C         140.3723  139.6827  166.0144 C.ar    1  UNL1        0.0182
     16 C         139.3390  139.8898  167.0816 C.ar    1  UNL1        0.0015
     17 C         139.7624  140.0943  168.5060 C.ar    1  UNL1        0.0039
     18 C         141.2193  140.0917  168.8630 C.ar    1  UNL1        0.0714
     19 C         142.2527  139.8846  167.7958 C.ar    1  UNL1        0.0039
     20 C         141.8292  139.6801  166.3714 C.ar    1  UNL1        0.0015
     21 C         141.6428  140.2962  170.2874 C.3     1  UNL1        0.4186
     22 F         142.0664  140.5007  171.7118 F       1  UNL1       -0.1659
     23 F         142.2872  138.9416  170.2903 F       1  UNL1       -0.1659
     24 F         140.9986  141.6507  170.2845 F       1  UNL1       -0.1659
     25 N         142.4509  137.2104  155.3509 N.pl3   1  UNL1       -0.2150
     26 H         142.9739  137.8614  154.8294 H       1  UNL1        0.1737
     27 C         142.1434  135.8605  154.7734 C.ar    1  UNL1        0.0648
     28 C         141.8961  135.7133  153.3013 C.ar    1  UNL1        0.0155
     29 C         141.5886  134.3635  152.7238 C.ar    1  UNL1       -0.0029
     30 C         141.5285  133.1610  153.6184 C.ar    1  UNL1       -0.0207
     31 C         141.7758  133.3082  155.0905 C.ar    1  UNL1       -0.0029
     32 C         142.0833  134.6580  155.6680 C.ar    1  UNL1        0.0155
     33 C         141.2210  131.8111  153.0409 C.3     1  UNL1        0.0434
     34 C         141.3771  130.5810  153.8849 C.3     1  UNL1        0.0734
     35 N         142.1376  129.4007  153.3570 N.3     1  UNL1       -0.2949
     36 H         141.5377  128.9486  152.6670 H       1  UNL1        0.1233
     37 C         143.4736  129.6001  152.7050 C.3     1  UNL1        0.1029
     38 C         144.7291  129.4890  153.5183 C.3     1  UNL1        0.1499
     39 O         146.0187  129.1010  152.8577 O.3     1  UNL1       -0.3786
     40 H         146.7266  129.0757  153.5204 H       1  UNL1        0.2108
     41 C         144.6949  129.7659  154.9921 C.ar    1  UNL1        0.0248
     42 C         144.7308  131.1802  155.4905 C.ar    1  UNL1        0.0012
     43 C         144.6967  131.4572  156.9643 C.ar    1  UNL1        0.0204
     44 C         144.6267  130.3198  157.9397 C.ar    1  UNL1        0.0989
     45 N         144.5908  128.9055  157.4413 N.ar    1  UNL1       -0.2426
     46 C         144.6249  128.6285  155.9675 C.ar    1  UNL1        0.0969
@<TRIPOS>BOND
     1     1     2    2
     2     2     3    2
     3     2    25    1
     4    25    27    1
     5    27    28   ar
     6    28    29   ar
     7    29    30   ar
     8    30    33    1
     9    33    34    1
    10    34    35    1
    11    35    37    1
    12    37    38    1
    13    38    39    1
    14    38    41    1
    15    41    42   ar
    16    42    43   ar
    17    43    44   ar
    18    44    45   ar
    19    45    46   ar
    20    30    31   ar
    21    31    32   ar
    22     2     4    1
    23     4     5   ar
    24     5     6   ar
    25     6     7   ar
    26     7    10    1
    27    10    11   ar
    28    11    12   ar
    29    12    15    1
    30    15    16   ar
    31    16    17   ar
    32    17    18   ar
    33    18    21    1
    34    21    22    1
    35    21    23    1
    36    21    24    1
    37    18    19   ar
    38    19    20   ar
    39    12    13   ar
    40    13    14   ar
    41     7     8   ar
    42     8     9   ar
    43    32    27   ar
    44     9     4   ar
    45    46    41   ar
    46    14    10   ar
    47    20    15   ar
    48    25    26    1
    49    35    36    1
    50    39    40    1
