@<TRIPOS>MOLECULE
*****
 29 32 0 0 0
SMALL
GASTEIGER

@<TRIPOS>ATOM
      1 C         138.5616  139.8019  164.8455 C.ar    1  UNL1        0.0764
      2 C         138.2343  141.1940  164.3931 C.ar    1  UNL1        0.0176
      3 C         138.2756  141.5374  162.9336 C.ar    1  UNL1        0.0175
      4 C         138.6442  140.4887  161.9264 C.ar    1  UNL1        0.0705
      5 C         138.9715  139.0965  162.3789 C.ar    1  UNL1        0.0724
      6 N         138.9302  138.7531  163.8384 N.ar    1  UNL1       -0.2511
      7 C         139.3401  138.0478  161.3718 C.3     1  UNL1        0.0489
      8 C         139.3814  138.3912  159.9122 C.3     1  UNL1        0.0283
      9 C         139.0541  139.7834  159.4597 C.3     1  UNL1        0.1020
     10 N         138.6855  140.8322  160.4668 N.am    1  UNL1       -0.2239
     11 C         138.3582  142.2243  160.0144 C.2     1  UNL1        0.4086
     12 O         137.9896  143.2731  161.0215 O.2     1  UNL1       -0.2258
     13 C         137.7839  138.2361  166.7675 C.3     1  UNL1        0.0278
     14 C         138.5203  139.4584  166.3051 C.3     1  UNL1        0.1121
     15 N         139.2154  140.3372  167.3024 N.am    1  UNL1       -0.2973
     16 C         140.7139  140.3937  167.3362 C.2     1  UNL1        0.2461
     17 O         141.5174  139.5712  166.3728 O.2     1  UNL1       -0.2701
     18 H         138.6881  140.8770  167.9347 H       1  UNL1        0.1500
     19 C         141.4091  141.2725  168.3334 C.ar    1  UNL1        0.0535
     20 C         140.7034  142.4696  168.8985 C.ar    1  UNL1        0.0068
     21 C         141.3985  143.3484  169.8957 C.ar    1  UNL1        0.0298
     22 C         142.7993  143.0302  170.3279 C.ar    1  UNL1        0.1401
     23 F         143.4944  143.9090  171.3251 F       1  UNL1       -0.2042
     24 C         143.5048  141.8332  169.7629 C.ar    1  UNL1        0.0298
     25 C         142.8097  140.9543  168.7656 C.ar    1  UNL1        0.0068
     26 O         138.3995  142.5678  158.5548 O.3     1  UNL1       -0.4381
     27 C         139.4550  143.4968  158.0325 C.3     1  UNL1        0.1707
     28 C         140.1663  144.8164  158.0864 C.3     1  UNL1        0.0474
     29 C         140.5718  143.7865  157.0740 C.3     1  UNL1        0.0474
@<TRIPOS>BOND
     1    14    13    1
     2    14    15    1
     3    15    16   am
     4    16    17    2
     5    16    19    1
     6    19    20   ar
     7    20    21   ar
     8    21    22   ar
     9    22    23    1
    10    22    24   ar
    11    24    25   ar
    12    14     1    1
    13     1     2   ar
    14     2     3   ar
    15     3     4   ar
    16     4     5   ar
    17     5     6   ar
    18     5     7    1
    19     7     8    1
    20     8     9    1
    21     9    10    1
    22    10    11   am
    23    11    12    2
    24    11    26    1
    25    26    27    1
    26    27    28    1
    27    28    29    1
    28    25    19   ar
    29     6     1   ar
    30    29    27    1
    31    10     4    1
    32    15    18    1
@<TRIPOS>MOLECULE
*****
 29 32 0 0 0
SMALL
GASTEIGER

@<TRIPOS>ATOM
      1 C         143.3530  142.4951  163.3242 C.ar    1  UNL1        0.0764
      2 C         143.8235  142.5079  161.9000 C.ar    1  UNL1        0.0176
      3 C         143.1232  143.3637  160.8865 C.ar    1  UNL1        0.0175
      4 C         141.9525  144.2067  161.2973 C.ar    1  UNL1        0.0705
      5 C         141.4820  144.1939  162.7215 C.ar    1  UNL1        0.0724
      6 N         142.1823  143.3381  163.7349 N.ar    1  UNL1       -0.2511
      7 C         140.3113  145.0369  163.1322 C.3     1  UNL1        0.0489
      8 C         139.6110  145.8927  162.1188 C.3     1  UNL1        0.0283
      9 C         140.0815  145.9056  160.6944 C.3     1  UNL1        0.1020
     10 N         141.2522  145.0626  160.2837 N.am    1  UNL1       -0.2239
     11 C         141.7227  145.0754  158.8595 C.2     1  UNL1        0.4086
     12 O         142.8934  144.2324  158.4487 O.2     1  UNL1       -0.2258
     13 C         145.3588  140.9856  163.9938 C.3     1  UNL1        0.0278
     14 C         144.0533  141.6392  164.3378 C.3     1  UNL1        0.1121
     15 N         143.4480  141.4371  165.6952 N.am    1  UNL1       -0.2973
     16 C         142.3742  140.4084  165.8920 C.2     1  UNL1        0.2461
     17 O         141.9056  139.5818  164.7312 O.2     1  UNL1       -0.2701
     18 H         143.7555  141.9796  166.4571 H       1  UNL1        0.1500
     19 C         141.7689  140.2063  167.2494 C.ar    1  UNL1        0.0535
     20 C         142.6129  139.6926  168.3781 C.ar    1  UNL1        0.0068
     21 C         142.0076  139.4904  169.7355 C.ar    1  UNL1        0.0298
     22 C         140.5582  139.8020  169.9644 C.ar    1  UNL1        0.1401
     23 F         139.9529  139.5998  171.3219 F       1  UNL1       -0.2042
     24 C         139.7142  140.3156  168.8358 C.ar    1  UNL1        0.0298
     25 C         140.3196  140.5178  167.4783 C.ar    1  UNL1        0.0068
     26 O         141.0224  145.9312  157.8459 O.3     1  UNL1       -0.4381
     27 C         140.0917  145.3050  156.8502 C.3     1  UNL1        0.1707
     28 C         139.2349  145.4165  155.6240 C.3     1  UNL1        0.0474
     29 C         139.3365  144.1088  156.3516 C.3     1  UNL1        0.0474
@<TRIPOS>BOND
     1    14    13    1
     2    14    15    1
     3    15    16   am
     4    16    17    2
     5    16    19    1
     6    19    20   ar
     7    20    21   ar
     8    21    22   ar
     9    22    23    1
    10    22    24   ar
    11    24    25   ar
    12    14     1    1
    13     1     2   ar
    14     2     3   ar
    15     3     4   ar
    16     4     5   ar
    17     5     6   ar
    18     5     7    1
    19     7     8    1
    20     8     9    1
    21     9    10    1
    22    10    11   am
    23    11    12    2
    24    11    26    1
    25    26    27    1
    26    27    28    1
    27    28    29    1
    28    25    19   ar
    29     6     1   ar
    30    29    27    1
    31    10     4    1
    32    15    18    1
@<TRIPOS>MOLECULE
*****
 29 32 0 0 0
SMALL
GASTEIGER

@<TRIPOS>ATOM
      1 C         140.0952  139.2338  157.8728 C.ar    1  UNL1        0.0764
      2 C         139.7853  140.6988  157.9601 C.ar    1  UNL1        0.0176
      3 C         139.2010  141.2681  159.2188 C.ar    1  UNL1        0.0175
      4 C         138.9265  140.3724  160.3903 C.ar    1  UNL1        0.0705
      5 C         139.2364  138.9074  160.3030 C.ar    1  UNL1        0.0724
      6 N         139.8207  138.3381  159.0443 N.ar    1  UNL1       -0.2511
      7 C         138.9619  138.0116  161.4745 C.3     1  UNL1        0.0489
      8 C         138.3776  138.5809  162.7332 C.3     1  UNL1        0.0283
      9 C         138.0677  140.0460  162.8205 C.3     1  UNL1        0.1020
     10 N         138.3421  140.9417  161.6490 N.am    1  UNL1       -0.2239
     11 C         138.0323  142.4067  161.7363 C.2     1  UNL1        0.4086
     12 O         138.3067  143.3025  160.5648 O.2     1  UNL1       -0.2258
     13 C         141.1056  139.5793  155.5043 C.3     1  UNL1        0.0278
     14 C         140.6796  138.6645  156.6141 C.3     1  UNL1        0.1121
     15 N         140.8379  137.1803  156.4651 N.am    1  UNL1       -0.2973
     16 C         142.1949  136.5542  156.5929 C.2     1  UNL1        0.2461
     17 O         143.3938  137.4124  156.8695 O.2     1  UNL1       -0.2701
     18 H         140.0511  136.6171  156.2836 H       1  UNL1        0.1500
     19 C         142.3533  135.0701  156.4439 C.ar    1  UNL1        0.0535
     20 C         143.3382  134.3312  157.3007 C.ar    1  UNL1        0.0068
     21 C         143.4966  132.8470  157.1518 C.ar    1  UNL1        0.0298
     22 C         142.6699  132.1017  156.1461 C.ar    1  UNL1        0.1401
     23 F         142.8282  130.6176  155.9972 F       1  UNL1       -0.2042
     24 C         141.6850  132.8406  155.2894 C.ar    1  UNL1        0.0298
     25 C         141.5267  134.3248  155.4383 C.ar    1  UNL1        0.0068
     26 O         137.4479  142.9761  162.9951 O.3     1  UNL1       -0.4381
     27 C         138.2554  143.9185  163.8375 C.3     1  UNL1        0.1707
     28 C         138.4518  144.6715  165.1198 C.3     1  UNL1        0.0474
     29 C         139.4578  144.7977  164.0143 C.3     1  UNL1        0.0474
@<TRIPOS>BOND
     1    14    13    1
     2    14    15    1
     3    15    16   am
     4    16    17    2
     5    16    19    1
     6    19    20   ar
     7    20    21   ar
     8    21    22   ar
     9    22    23    1
    10    22    24   ar
    11    24    25   ar
    12    14     1    1
    13     1     2   ar
    14     2     3   ar
    15     3     4   ar
    16     4     5   ar
    17     5     6   ar
    18     5     7    1
    19     7     8    1
    20     8     9    1
    21     9    10    1
    22    10    11   am
    23    11    12    2
    24    11    26    1
    25    26    27    1
    26    27    28    1
    27    28    29    1
    28    25    19   ar
    29     6     1   ar
    30    29    27    1
    31    10     4    1
    32    15    18    1
@<TRIPOS>MOLECULE
*****
 29 32 0 0 0
SMALL
GASTEIGER

@<TRIPOS>ATOM
      1 C         139.9716  144.4556  158.5227 C.ar    1  UNL1        0.0764
      2 C         139.2685  143.1365  158.6477 C.ar    1  UNL1        0.0176
      3 C         138.8392  142.6404  159.9966 C.ar    1  UNL1        0.0175
      4 C         139.1130  143.4634  161.2204 C.ar    1  UNL1        0.0705
      5 C         139.8161  144.7825  161.0954 C.ar    1  UNL1        0.0724
      6 N         140.2454  145.2786  159.7465 N.ar    1  UNL1       -0.2511
      7 C         140.0899  145.6054  162.3192 C.3     1  UNL1        0.0489
      8 C         139.6606  145.1093  163.6681 C.3     1  UNL1        0.0283
      9 C         138.9575  143.7902  163.7932 C.3     1  UNL1        0.1020
     10 N         138.6837  142.9672  162.5694 N.am    1  UNL1       -0.2239
     11 C         137.9806  141.6482  162.6945 C.2     1  UNL1        0.4086
     12 O         137.7068  140.8252  161.4706 O.2     1  UNL1       -0.2258
     13 C         140.9378  143.9890  156.1565 C.3     1  UNL1        0.0278
     14 C         140.4009  144.9518  157.1737 C.3     1  UNL1        0.1121
     15 N         140.2933  146.4107  156.8421 N.am    1  UNL1       -0.2973
     16 C         139.1956  146.8964  155.9425 C.2     1  UNL1        0.2461
     17 O         138.2056  145.9231  155.3745 O.2     1  UNL1       -0.2701
     18 H         140.9431  147.0495  157.2149 H       1  UNL1        0.1500
     19 C         139.0880  148.3553  155.6109 C.ar    1  UNL1        0.0535
     20 C         139.6337  148.8715  154.3125 C.ar    1  UNL1        0.0068
     21 C         139.5261  150.3305  153.9808 C.ar    1  UNL1        0.0298
     22 C         138.8728  151.2731  154.9477 C.ar    1  UNL1        0.1401
     23 F         138.7652  152.7321  154.6161 F       1  UNL1       -0.2042
     24 C         138.3272  150.7569  156.2460 C.ar    1  UNL1        0.0298
     25 C         138.4348  149.2980  156.5776 C.ar    1  UNL1        0.0068
     26 O         137.5513  141.1520  164.0434 O.3     1  UNL1       -0.4381
     27 C         138.1638  139.9077  164.6147 C.3     1  UNL1        0.1707
     28 C         138.9320  138.6332  164.4258 C.3     1  UNL1        0.0474
     29 C         138.4567  139.0268  165.7929 C.3     1  UNL1        0.0474
@<TRIPOS>BOND
     1    14    13    1
     2    14    15    1
     3    15    16   am
     4    16    17    2
     5    16    19    1
     6    19    20   ar
     7    20    21   ar
     8    21    22   ar
     9    22    23    1
    10    22    24   ar
    11    24    25   ar
    12    14     1    1
    13     1     2   ar
    14     2     3   ar
    15     3     4   ar
    16     4     5   ar
    17     5     6   ar
    18     5     7    1
    19     7     8    1
    20     8     9    1
    21     9    10    1
    22    10    11   am
    23    11    12    2
    24    11    26    1
    25    26    27    1
    26    27    28    1
    27    28    29    1
    28    25    19   ar
    29     6     1   ar
    30    29    27    1
    31    10     4    1
    32    15    18    1
@<TRIPOS>MOLECULE
*****
 29 32 0 0 0
SMALL
GASTEIGER

@<TRIPOS>ATOM
      1 C         142.4752  138.4499  157.9083 C.ar    1  UNL1        0.0764
      2 C         142.6407  139.9189  157.6544 C.ar    1  UNL1        0.0176
      3 C         143.1756  140.8112  158.7350 C.ar    1  UNL1        0.0175
      4 C         143.5449  140.2344  160.0695 C.ar    1  UNL1        0.0705
      5 C         143.3794  138.7654  160.3234 C.ar    1  UNL1        0.0724
      6 N         142.8445  137.8731  159.2428 N.ar    1  UNL1       -0.2511
      7 C         143.7487  138.1886  161.6580 C.3     1  UNL1        0.0489
      8 C         144.2836  139.0809  162.7385 C.3     1  UNL1        0.0283
      9 C         144.4491  140.5500  162.4847 C.3     1  UNL1        0.1020
     10 N         144.0798  141.1268  161.1501 N.am    1  UNL1       -0.2239
     11 C         144.2453  142.5958  160.8962 C.2     1  UNL1        0.4086
     12 O         143.8760  143.1725  159.5617 O.2     1  UNL1       -0.2258
     13 C         141.1285  138.1389  155.7083 C.3     1  UNL1        0.0278
     14 C         141.9403  137.5575  156.8277 C.3     1  UNL1        0.1121
     15 N         142.2173  136.0838  156.8665 N.am    1  UNL1       -0.2973
     16 C         143.5055  135.5480  156.3155 C.2     1  UNL1        0.2461
     17 O         144.5167  136.4860  155.7258 O.2     1  UNL1       -0.2701
     18 H         141.5536  135.4682  157.2535 H       1  UNL1        0.1500
     19 C         143.7825  134.0743  156.3543 C.ar    1  UNL1        0.0535
     20 C         144.3731  133.4544  157.5860 C.ar    1  UNL1        0.0068
     21 C         144.6501  131.9807  157.6247 C.ar    1  UNL1        0.0298
     22 C         144.3364  131.1270  156.4319 C.ar    1  UNL1        0.1401
     23 F         144.6134  129.6533  156.4707 F       1  UNL1       -0.2042
     24 C         143.7458  131.7469  155.2003 C.ar    1  UNL1        0.0298
     25 C         143.4688  133.2206  155.1616 C.ar    1  UNL1        0.0068
     26 O         144.7802  143.4881  161.9768 O.3     1  UNL1       -0.4381
     27 C         143.8369  144.2975  162.8165 C.3     1  UNL1        0.1707
     28 C         142.4587  144.8297  163.0757 C.3     1  UNL1        0.0474
     29 C         143.5812  145.1671  164.0116 C.3     1  UNL1        0.0474
@<TRIPOS>BOND
     1    14    13    1
     2    14    15    1
     3    15    16   am
     4    16    17    2
     5    16    19    1
     6    19    20   ar
     7    20    21   ar
     8    21    22   ar
     9    22    23    1
    10    22    24   ar
    11    24    25   ar
    12    14     1    1
    13     1     2   ar
    14     2     3   ar
    15     3     4   ar
    16     4     5   ar
    17     5     6   ar
    18     5     7    1
    19     7     8    1
    20     8     9    1
    21     9    10    1
    22    10    11   am
    23    11    12    2
    24    11    26    1
    25    26    27    1
    26    27    28    1
    27    28    29    1
    28    25    19   ar
    29     6     1   ar
    30    29    27    1
    31    10     4    1
    32    15    18    1
@<TRIPOS>MOLECULE
*****
 29 32 0 0 0
SMALL
GASTEIGER

@<TRIPOS>ATOM
      1 C         143.9206  142.0452  158.7245 C.ar    1  UNL1        0.0764
      2 C         142.4951  142.4290  158.4590 C.ar    1  UNL1        0.0176
      3 C         141.7281  143.2171  159.4790 C.ar    1  UNL1        0.0175
      4 C         142.3866  143.6214  160.7647 C.ar    1  UNL1        0.0705
      5 C         143.8121  143.2376  161.0303 C.ar    1  UNL1        0.0724
      6 N         144.5791  142.4495  160.0102 N.ar    1  UNL1       -0.2511
      7 C         144.4706  143.6418  162.3159 C.3     1  UNL1        0.0489
      8 C         143.7036  144.4299  163.3360 C.3     1  UNL1        0.0283
      9 C         142.2780  144.8137  163.0705 C.3     1  UNL1        0.1020
     10 N         141.6195  144.4095  161.7848 N.am    1  UNL1       -0.2239
     11 C         140.1940  144.7933  161.5193 C.2     1  UNL1        0.4086
     12 O         139.5355  144.3890  160.2336 O.2     1  UNL1       -0.2258
     13 C         145.7938  141.9095  156.9293 C.3     1  UNL1        0.0278
     14 C         144.6877  141.2571  157.7044 C.3     1  UNL1        0.1121
     15 N         144.3485  139.8166  157.4595 N.am    1  UNL1       -0.2973
     16 C         143.4569  139.4405  156.3134 C.2     1  UNL1        0.2461
     17 O         142.9043  140.5048  155.4123 O.2     1  UNL1       -0.2701
     18 H         144.7112  139.1181  158.0509 H       1  UNL1        0.1500
     19 C         143.1177  138.0000  156.0685 C.ar    1  UNL1        0.0535
     20 C         144.1728  137.0544  155.5757 C.ar    1  UNL1        0.0068
     21 C         143.8337  135.6139  155.3308 C.ar    1  UNL1        0.0298
     22 C         142.4394  135.1190  155.5785 C.ar    1  UNL1        0.1401
     23 F         142.1003  133.6786  155.3336 F       1  UNL1       -0.2042
     24 C         141.3845  136.0646  156.0712 C.ar    1  UNL1        0.0298
     25 C         141.7236  137.5051  156.3162 C.ar    1  UNL1        0.0068
     26 O         139.4269  145.5814  162.5394 O.3     1  UNL1       -0.4381
     27 C         138.8611  144.8949  163.7471 C.3     1  UNL1        0.1707
     28 C         138.8381  144.6892  165.2327 C.3     1  UNL1        0.0474
     29 C         137.9041  143.9118  164.3533 C.3     1  UNL1        0.0474
@<TRIPOS>BOND
     1    14    13    1
     2    14    15    1
     3    15    16   am
     4    16    17    2
     5    16    19    1
     6    19    20   ar
     7    20    21   ar
     8    21    22   ar
     9    22    23    1
    10    22    24   ar
    11    24    25   ar
    12    14     1    1
    13     1     2   ar
    14     2     3   ar
    15     3     4   ar
    16     4     5   ar
    17     5     6   ar
    18     5     7    1
    19     7     8    1
    20     8     9    1
    21     9    10    1
    22    10    11   am
    23    11    12    2
    24    11    26    1
    25    26    27    1
    26    27    28    1
    27    28    29    1
    28    25    19   ar
    29     6     1   ar
    30    29    27    1
    31    10     4    1
    32    15    18    1
@<TRIPOS>MOLECULE
*****
 29 32 0 0 0
SMALL
GASTEIGER

@<TRIPOS>ATOM
      1 C         142.3312  137.8180  157.9667 C.ar    1  UNL1        0.0764
      2 C         140.8985  138.2601  157.9217 C.ar    1  UNL1        0.0176
      3 C         140.1845  138.6199  159.1908 C.ar    1  UNL1        0.0175
      4 C         140.9032  138.5377  160.5049 C.ar    1  UNL1        0.0705
      5 C         142.3359  138.0956  160.5499 C.ar    1  UNL1        0.0724
      6 N         143.0498  137.7358  159.2807 N.ar    1  UNL1       -0.2511
      7 C         143.0545  138.0134  161.8639 C.3     1  UNL1        0.0489
      8 C         142.3406  138.3733  163.1330 C.3     1  UNL1        0.0283
      9 C         140.9078  138.8154  163.0881 C.3     1  UNL1        0.1020
     10 N         140.1892  138.8976  161.7741 N.am    1  UNL1       -0.2239
     11 C         138.7565  139.3396  161.7291 C.2     1  UNL1        0.4086
     12 O         138.0378  139.4218  160.4151 O.2     1  UNL1       -0.2258
     13 C         143.1475  138.4588  155.5849 C.3     1  UNL1        0.0278
     14 C         143.0452  137.4581  156.6975 C.3     1  UNL1        0.1121
     15 N         143.6569  136.0975  156.5411 N.am    1  UNL1       -0.2973
     16 C         142.8240  134.9534  156.0439 C.2     1  UNL1        0.2461
     17 O         141.3793  135.1698  155.7032 O.2     1  UNL1       -0.2701
     18 H         144.6051  135.9554  156.7647 H       1  UNL1        0.1500
     19 C         143.4358  133.5927  155.8875 C.ar    1  UNL1        0.0535
     20 C         143.0411  132.7213  154.7321 C.ar    1  UNL1        0.0068
     21 C         143.6528  131.3606  154.5757 C.ar    1  UNL1        0.0298
     22 C         144.6592  130.8715  155.5746 C.ar    1  UNL1        0.1401
     23 F         145.2709  129.5108  155.4182 F       1  UNL1       -0.2042
     24 C         145.0539  131.7429  156.7300 C.ar    1  UNL1        0.0298
     25 C         144.4422  133.1035  156.8864 C.ar    1  UNL1        0.0068
     26 O         138.0425  139.6995  162.9983 O.3     1  UNL1       -0.4381
     27 C         137.8388  141.1405  163.3615 C.3     1  UNL1        0.1707
     28 C         137.7243  142.2140  164.4029 C.3     1  UNL1        0.0474
     29 C         137.6004  142.5629  162.9493 C.3     1  UNL1        0.0474
@<TRIPOS>BOND
     1    14    13    1
     2    14    15    1
     3    15    16   am
     4    16    17    2
     5    16    19    1
     6    19    20   ar
     7    20    21   ar
     8    21    22   ar
     9    22    23    1
    10    22    24   ar
    11    24    25   ar
    12    14     1    1
    13     1     2   ar
    14     2     3   ar
    15     3     4   ar
    16     4     5   ar
    17     5     6   ar
    18     5     7    1
    19     7     8    1
    20     8     9    1
    21     9    10    1
    22    10    11   am
    23    11    12    2
    24    11    26    1
    25    26    27    1
    26    27    28    1
    27    28    29    1
    28    25    19   ar
    29     6     1   ar
    30    29    27    1
    31    10     4    1
    32    15    18    1
@<TRIPOS>MOLECULE
*****
 29 32 0 0 0
SMALL
GASTEIGER

@<TRIPOS>ATOM
      1 C         138.0880  140.6472  157.4417 C.ar    1  UNL1        0.0764
      2 C         139.5420  140.3537  157.2188 C.ar    1  UNL1        0.0176
      3 C         140.3431  139.6761  158.2907 C.ar    1  UNL1        0.0175
      4 C         139.6903  139.2920  159.5854 C.ar    1  UNL1        0.0705
      5 C         138.2363  139.5855  159.8083 C.ar    1  UNL1        0.0724
      6 N         137.4352  140.2631  158.7364 N.ar    1  UNL1       -0.2511
      7 C         137.5835  139.2014  161.1030 C.3     1  UNL1        0.0489
      8 C         138.3846  138.5238  162.1748 C.3     1  UNL1        0.0283
      9 C         139.8387  138.2302  161.9520 C.3     1  UNL1        0.1020
     10 N         140.4915  138.6143  160.6573 N.am    1  UNL1       -0.2239
     11 C         141.9455  138.3208  160.4345 C.2     1  UNL1        0.4086
     12 O         142.5984  138.7049  159.1398 O.2     1  UNL1       -0.2258
     13 C         137.9802  141.9379  155.1894 C.3     1  UNL1        0.0278
     14 C         137.2868  141.3249  156.3698 C.3     1  UNL1        0.1121
     15 N         135.7921  141.3894  156.4783 N.am    1  UNL1       -0.2973
     16 C         134.9535  140.2546  155.9696 C.2     1  UNL1        0.2461
     17 O         135.6095  139.0551  155.3524 O.2     1  UNL1       -0.2701
     18 H         135.3615  142.1766  156.8834 H       1  UNL1        0.1500
     19 C         133.4588  140.3191  156.0782 C.ar    1  UNL1        0.0535
     20 C         132.7249  139.3245  156.9280 C.ar    1  UNL1        0.0068
     21 C         131.2302  139.3890  157.0365 C.ar    1  UNL1        0.0298
     22 C         130.4695  140.4482  156.2952 C.ar    1  UNL1        0.1401
     23 F         128.9748  140.5128  156.4038 F       1  UNL1       -0.2042
     24 C         131.2034  141.4428  155.4455 C.ar    1  UNL1        0.0298
     25 C         132.6981  141.3783  155.3370 C.ar    1  UNL1        0.0068
     26 O         142.7468  137.6431  161.5064 O.3     1  UNL1       -0.4381
     27 C         143.3148  138.4460  162.6389 C.3     1  UNL1        0.1707
     28 C         143.3208  138.8194  164.0917 C.3     1  UNL1        0.0474
     29 C         144.2927  139.4632  163.1478 C.3     1  UNL1        0.0474
@<TRIPOS>BOND
     1    14    13    1
     2    14    15    1
     3    15    16   am
     4    16    17    2
     5    16    19    1
     6    19    20   ar
     7    20    21   ar
     8    21    22   ar
     9    22    23    1
    10    22    24   ar
    11    24    25   ar
    12    14     1    1
    13     1     2   ar
    14     2     3   ar
    15     3     4   ar
    16     4     5   ar
    17     5     6   ar
    18     5     7    1
    19     7     8    1
    20     8     9    1
    21     9    10    1
    22    10    11   am
    23    11    12    2
    24    11    26    1
    25    26    27    1
    26    27    28    1
    27    28    29    1
    28    25    19   ar
    29     6     1   ar
    30    29    27    1
    31    10     4    1
    32    15    18    1
@<TRIPOS>MOLECULE
*****
 29 32 0 0 0
SMALL
GASTEIGER

@<TRIPOS>ATOM
      1 C         142.5903  135.3013  156.1958 C.ar    1  UNL1        0.0764
      2 C         141.5255  134.5857  155.4186 C.ar    1  UNL1        0.0176
      3 C         141.4924  133.0863  155.3972 C.ar    1  UNL1        0.0175
      4 C         142.5241  132.3024  156.1529 C.ar    1  UNL1        0.0705
      5 C         143.5889  133.0180  156.9301 C.ar    1  UNL1        0.0724
      6 N         143.6220  134.5174  156.9516 N.ar    1  UNL1       -0.2511
      7 C         144.6206  132.2341  157.6858 C.3     1  UNL1        0.0489
      8 C         144.5875  130.7347  157.6643 C.3     1  UNL1        0.0283
      9 C         143.5226  130.0190  156.8871 C.3     1  UNL1        0.1020
     10 N         142.4909  130.8029  156.1314 N.am    1  UNL1       -0.2239
     11 C         141.4261  130.0873  155.3542 C.2     1  UNL1        0.4086
     12 O         140.3944  130.8712  154.5985 O.2     1  UNL1       -0.2258
     13 C         142.0160  137.5807  155.0892 C.3     1  UNL1        0.0278
     14 C         142.6235  136.8008  156.2173 C.3     1  UNL1        0.1121
     15 N         143.2641  137.5204  157.3670 N.am    1  UNL1       -0.2973
     16 C         142.4112  138.1230  158.4437 C.2     1  UNL1        0.2461
     17 O         140.9175  138.0060  158.3707 O.2     1  UNL1       -0.2701
     18 H         144.2445  137.5972  157.4149 H       1  UNL1        0.1500
     19 C         143.0518  138.8426  159.5934 C.ar    1  UNL1        0.0535
     20 C         143.3626  140.3059  159.4828 C.ar    1  UNL1        0.0068
     21 C         144.0033  141.0255  160.6325 C.ar    1  UNL1        0.0298
     22 C         144.3331  140.2818  161.8928 C.ar    1  UNL1        0.1401
     23 F         144.9737  141.0013  163.0424 F       1  UNL1       -0.2042
     24 C         144.0223  138.8185  162.0033 C.ar    1  UNL1        0.0298
     25 C         143.3816  138.0989  160.8536 C.ar    1  UNL1        0.0068
     26 O         141.3930  128.5878  155.3327 O.3     1  UNL1       -0.4381
     27 C         140.0832  127.8649  155.4420 C.3     1  UNL1        0.1707
     28 C         138.9841  127.0650  154.8079 C.3     1  UNL1        0.0474
     29 C         138.9138  127.4128  156.2653 C.3     1  UNL1        0.0474
@<TRIPOS>BOND
     1    14    13    1
     2    14    15    1
     3    15    16   am
     4    16    17    2
     5    16    19    1
     6    19    20   ar
     7    20    21   ar
     8    21    22   ar
     9    22    23    1
    10    22    24   ar
    11    24    25   ar
    12    14     1    1
    13     1     2   ar
    14     2     3   ar
    15     3     4   ar
    16     4     5   ar
    17     5     6   ar
    18     5     7    1
    19     7     8    1
    20     8     9    1
    21     9    10    1
    22    10    11   am
    23    11    12    2
    24    11    26    1
    25    26    27    1
    26    27    28    1
    27    28    29    1
    28    25    19   ar
    29     6     1   ar
    30    29    27    1
    31    10     4    1
    32    15    18    1
