@<TRIPOS>MOLECULE
*****
 40 43 0 0 0
SMALL
GASTEIGER

@<TRIPOS>ATOM
      1 O         137.2472  141.1378  161.9609 O.2     1  UNL1       -0.2730
      2 C         138.2291  140.0294  161.7214 C.2     1  UNL1        0.2445
      3 N         139.6303  140.3486  161.2916 N.am    1  UNL1       -0.1924
      4 H         140.2747  139.6212  161.1344 H       1  UNL1        0.1825
      5 C         137.8098  138.6018  161.9119 C.3     1  UNL1        0.0871
      6 C         138.7468  137.6248  162.5579 C.3     1  UNL1        0.0096
      7 C         139.3216  137.9198  163.9116 C.3     1  UNL1        0.0005
      8 C         140.6902  137.4213  164.2702 C.3     1  UNL1        0.0005
      9 C         141.8564  138.3647  164.2677 C.3     1  UNL1        0.0096
     10 C         142.7520  138.4531  165.4677 C.3     1  UNL1        0.0854
     11 C         142.3147  139.2296  166.6744 C.2     1  UNL1        0.2261
     12 O         143.0658  139.0946  167.9658 O.2     1  UNL1       -0.2748
     13 N         141.1265  140.1410  166.5896 N.am    1  UNL1       -0.2839
     14 H         140.6336  140.2297  165.7420 H       1  UNL1        0.1549
     15 C         140.6892  140.9175  167.7963 C.ar    1  UNL1        0.0503
     16 C         139.8198  140.2679  168.8316 C.ar    1  UNL1        0.0147
     17 C         139.3826  141.0444  170.0382 C.ar    1  UNL1        0.0013
     18 C         139.8148  142.4705  170.2094 C.ar    1  UNL1        0.0001
     19 C         140.6842  143.1202  169.1740 C.ar    1  UNL1        0.0013
     20 C         141.1214  142.3437  167.9675 C.ar    1  UNL1        0.0147
     21 O         140.0496  141.7762  161.1011 O.3     1  UNL1       -0.2589
     22 C         141.0877  142.3794  162.0003 C.3     1  UNL1        0.1732
     23 C         142.1696  141.8484  161.1073 C.ar    1  UNL1        0.0120
     24 C         142.7103  140.4662  161.3244 C.ar    1  UNL1       -0.0013
     25 C         143.7922  139.9353  160.4313 C.ar    1  UNL1       -0.0002
     26 C         144.3335  140.7866  159.3212 C.ar    1  UNL1       -0.0000
     27 C         143.7928  142.1688  159.1042 C.ar    1  UNL1       -0.0002
     28 C         142.7109  142.6998  159.9972 C.ar    1  UNL1       -0.0013
     29 C         140.0057  142.9103  162.8933 C.ar    1  UNL1        0.0120
     30 C         139.1072  144.0102  162.4106 C.ar    1  UNL1       -0.0013
     31 C         138.0253  144.5411  163.3037 C.ar    1  UNL1       -0.0002
     32 C         137.8418  143.9721  164.6794 C.ar    1  UNL1       -0.0000
     33 C         138.7403  142.8723  165.1621 C.ar    1  UNL1       -0.0002
     34 C         139.8222  142.3413  164.2691 C.ar    1  UNL1       -0.0013
     35 C         142.1258  142.9825  162.8995 C.ar    1  UNL1        0.0120
     36 C         142.4254  144.4501  162.8203 C.ar    1  UNL1       -0.0013
     37 C         143.4635  145.0532  163.7195 C.ar    1  UNL1       -0.0002
     38 C         144.2020  144.1887  164.6979 C.ar    1  UNL1       -0.0000
     39 C         143.9024  142.7211  164.7770 C.ar    1  UNL1       -0.0002
     40 C         142.8643  142.1179  163.8779 C.ar    1  UNL1       -0.0013
@<TRIPOS>BOND
     1     1     2    2
     2     2     5    1
     3     5     6    1
     4     6     7    1
     5     7     8    1
     6     8     9    1
     7     9    10    1
     8    10    11    1
     9    11    12    2
    10    11    13   am
    11    13    15    1
    12    15    16   ar
    13    16    17   ar
    14    17    18   ar
    15    18    19   ar
    16    19    20   ar
    17     2     3   am
    18     3    21    1
    19    21    22    1
    20    22    23    1
    21    23    24   ar
    22    24    25   ar
    23    25    26   ar
    24    26    27   ar
    25    27    28   ar
    26    22    29    1
    27    29    30   ar
    28    30    31   ar
    29    31    32   ar
    30    32    33   ar
    31    33    34   ar
    32    22    35    1
    33    35    36   ar
    34    36    37   ar
    35    37    38   ar
    36    38    39   ar
    37    39    40   ar
    38    20    15   ar
    39    28    23   ar
    40    34    29   ar
    41    40    35   ar
    42    13    14    1
    43     3     4    1
@<TRIPOS>MOLECULE
*****
 40 43 0 0 0
SMALL
GASTEIGER

@<TRIPOS>ATOM
      1 O         139.5070  138.0774  161.5944 O.2     1  UNL1       -0.2730
      2 C         139.2972  139.5524  161.7687 C.2     1  UNL1        0.2445
      3 N         140.2162  140.3412  162.6537 N.am    1  UNL1       -0.1924
      4 H         140.0785  141.3093  162.7681 H       1  UNL1        0.1825
      5 C         138.1684  140.2386  161.0580 C.3     1  UNL1        0.0871
      6 C         138.0013  140.0693  159.5770 C.3     1  UNL1        0.0096
      7 C         139.1854  139.7241  158.7233 C.3     1  UNL1        0.0005
      8 C         139.7940  140.7635  157.8292 C.3     1  UNL1        0.0005
      9 C         139.1983  142.1386  157.7640 C.3     1  UNL1        0.0096
     10 C         139.8479  143.2729  158.4998 C.3     1  UNL1        0.0854
     11 C         139.9371  143.2425  159.9969 C.2     1  UNL1        0.2261
     12 O         141.0157  142.4448  160.6679 O.2     1  UNL1       -0.2748
     13 N         138.9478  144.0098  160.8229 N.am    1  UNL1       -0.2839
     14 H         138.2398  144.5334  160.3825 H       1  UNL1        0.1549
     15 C         139.0370  143.9794  162.3200 C.ar    1  UNL1        0.0503
     16 C         140.1959  144.6298  163.0156 C.ar    1  UNL1        0.0147
     17 C         140.2851  144.5994  164.5126 C.ar    1  UNL1        0.0013
     18 C         139.2154  143.9186  165.3140 C.ar    1  UNL1        0.0001
     19 C         138.0565  143.2683  164.6184 C.ar    1  UNL1        0.0013
     20 C         137.9673  143.2987  163.1214 C.ar    1  UNL1        0.0147
     21 O         141.3450  139.6550  163.3644 O.3     1  UNL1       -0.2589
     22 C         141.6901  140.0413  164.7721 C.3     1  UNL1        0.1732
     23 C         142.9422  140.7066  164.2826 C.ar    1  UNL1        0.0120
     24 C         144.2650  140.0144  164.4272 C.ar    1  UNL1       -0.0013
     25 C         145.5171  140.6797  163.9376 C.ar    1  UNL1       -0.0002
     26 C         145.4463  142.0372  163.3035 C.ar    1  UNL1       -0.0000
     27 C         144.1235  142.7294  163.1589 C.ar    1  UNL1       -0.0002
     28 C         142.8714  142.0641  163.6485 C.ar    1  UNL1       -0.0013
     29 C         140.4380  139.3760  165.2616 C.ar    1  UNL1        0.0120
     30 C         140.2093  137.9180  164.9933 C.ar    1  UNL1       -0.0013
     31 C         138.9572  137.2527  165.4829 C.ar    1  UNL1       -0.0002
     32 C         137.9338  138.0454  166.2407 C.ar    1  UNL1       -0.0000
     33 C         138.1625  139.5034  166.5090 C.ar    1  UNL1       -0.0002
     34 C         139.4146  140.1687  166.0195 C.ar    1  UNL1       -0.0013
     35 C         142.0352  140.4275  166.1798 C.ar    1  UNL1        0.0120
     36 C         142.3900  139.3696  167.1823 C.ar    1  UNL1       -0.0013
     37 C         142.7351  139.7559  168.5900 C.ar    1  UNL1       -0.0002
     38 C         142.7255  141.2001  168.9953 C.ar    1  UNL1       -0.0000
     39 C         142.3708  142.2580  167.9928 C.ar    1  UNL1       -0.0002
     40 C         142.0256  141.8717  166.5851 C.ar    1  UNL1       -0.0013
@<TRIPOS>BOND
     1     1     2    2
     2     2     5    1
     3     5     6    1
     4     6     7    1
     5     7     8    1
     6     8     9    1
     7     9    10    1
     8    10    11    1
     9    11    12    2
    10    11    13   am
    11    13    15    1
    12    15    16   ar
    13    16    17   ar
    14    17    18   ar
    15    18    19   ar
    16    19    20   ar
    17     2     3   am
    18     3    21    1
    19    21    22    1
    20    22    23    1
    21    23    24   ar
    22    24    25   ar
    23    25    26   ar
    24    26    27   ar
    25    27    28   ar
    26    22    29    1
    27    29    30   ar
    28    30    31   ar
    29    31    32   ar
    30    32    33   ar
    31    33    34   ar
    32    22    35    1
    33    35    36   ar
    34    36    37   ar
    35    37    38   ar
    36    38    39   ar
    37    39    40   ar
    38    20    15   ar
    39    28    23   ar
    40    34    29   ar
    41    40    35   ar
    42    13    14    1
    43     3     4    1
@<TRIPOS>MOLECULE
*****
 40 43 0 0 0
SMALL
GASTEIGER

@<TRIPOS>ATOM
      1 O         139.3236  137.9953  161.7742 O.2     1  UNL1       -0.2730
      2 C         139.0839  139.4678  161.9300 C.2     1  UNL1        0.2445
      3 N         140.0350  140.3013  162.7366 N.am    1  UNL1       -0.1924
      4 H         139.8776  141.2677  162.8389 H       1  UNL1        0.1825
      5 C         137.8930  140.1068  161.2791 C.3     1  UNL1        0.0871
      6 C         137.7725  140.1200  159.7841 C.3     1  UNL1        0.0096
      7 C         138.9546  139.7616  158.9332 C.3     1  UNL1        0.0005
      8 C         139.3457  140.6422  157.7835 C.3     1  UNL1        0.0005
      9 C         138.9474  142.0883  157.7771 C.3     1  UNL1        0.0096
     10 C         139.7920  143.1019  158.4906 C.3     1  UNL1        0.0854
     11 C         139.8690  143.0931  159.9887 C.2     1  UNL1        0.2261
     12 O         140.8395  142.1853  160.6845 O.2     1  UNL1       -0.2748
     13 N         138.9755  143.9920  160.7909 N.am    1  UNL1       -0.2839
     14 H         138.3385  144.5878  160.3342 H       1  UNL1        0.1549
     15 C         139.0524  143.9832  162.2890 C.ar    1  UNL1        0.0503
     16 C         137.9886  143.2935  163.0905 C.ar    1  UNL1        0.0147
     17 C         138.0656  143.2847  164.5885 C.ar    1  UNL1        0.0013
     18 C         139.2065  143.9655  165.2849 C.ar    1  UNL1        0.0001
     19 C         140.2703  144.6552  164.4833 C.ar    1  UNL1        0.0013
     20 C         140.1933  144.6640  162.9853 C.ar    1  UNL1        0.0147
     21 O         141.2259  139.6623  163.3875 O.3     1  UNL1       -0.2589
     22 C         141.6111  140.0441  164.7860 C.3     1  UNL1        0.1732
     23 C         140.3711  139.3813  165.3085 C.ar    1  UNL1        0.0120
     24 C         139.3822  140.1698  166.1150 C.ar    1  UNL1       -0.0013
     25 C         138.1422  139.5069  166.6375 C.ar    1  UNL1       -0.0002
     26 C         137.8910  138.0557  166.3535 C.ar    1  UNL1       -0.0000
     27 C         138.8799  137.2672  165.5470 C.ar    1  UNL1       -0.0002
     28 C         140.1199  137.9299  165.0245 C.ar    1  UNL1       -0.0013
     29 C         142.8511  140.7068  164.2635 C.ar    1  UNL1        0.0120
     30 C         142.7667  142.0655  163.6334 C.ar    1  UNL1       -0.0013
     31 C         144.0068  142.7282  163.1108 C.ar    1  UNL1       -0.0002
     32 C         145.3312  142.0324  163.2184 C.ar    1  UNL1       -0.0000
     33 C         145.4156  140.6738  163.8485 C.ar    1  UNL1       -0.0002
     34 C         144.1756  140.0110  164.3710 C.ar    1  UNL1       -0.0013
     35 C         141.9963  140.4258  166.1845 C.ar    1  UNL1        0.0120
     36 C         142.0762  141.8727  166.5719 C.ar    1  UNL1       -0.0013
     37 C         142.4615  142.2545  167.9705 C.ar    1  UNL1       -0.0002
     38 C         142.7668  141.1894  168.9815 C.ar    1  UNL1       -0.0000
     39 C         142.6869  139.7425  168.5941 C.ar    1  UNL1       -0.0002
     40 C         142.3017  139.3607  167.1956 C.ar    1  UNL1       -0.0013
@<TRIPOS>BOND
     1     1     2    2
     2     2     5    1
     3     5     6    1
     4     6     7    1
     5     7     8    1
     6     8     9    1
     7     9    10    1
     8    10    11    1
     9    11    12    2
    10    11    13   am
    11    13    15    1
    12    15    16   ar
    13    16    17   ar
    14    17    18   ar
    15    18    19   ar
    16    19    20   ar
    17     2     3   am
    18     3    21    1
    19    21    22    1
    20    22    23    1
    21    23    24   ar
    22    24    25   ar
    23    25    26   ar
    24    26    27   ar
    25    27    28   ar
    26    22    29    1
    27    29    30   ar
    28    30    31   ar
    29    31    32   ar
    30    32    33   ar
    31    33    34   ar
    32    22    35    1
    33    35    36   ar
    34    36    37   ar
    35    37    38   ar
    36    38    39   ar
    37    39    40   ar
    38    20    15   ar
    39    28    23   ar
    40    34    29   ar
    41    40    35   ar
    42    13    14    1
    43     3     4    1
@<TRIPOS>MOLECULE
*****
 40 43 0 0 0
SMALL
GASTEIGER

@<TRIPOS>ATOM
      1 O         137.1863  141.1689  162.0918 O.2     1  UNL1       -0.2730
      2 C         138.1419  140.0729  161.7236 C.2     1  UNL1        0.2445
      3 N         139.5127  140.4116  161.2177 N.am    1  UNL1       -0.1924
      4 H         140.1399  139.6922  160.9760 H       1  UNL1        0.1825
      5 C         137.7265  138.6381  161.8614 C.3     1  UNL1        0.0871
      6 C         138.6766  137.6350  162.4455 C.3     1  UNL1        0.0096
      7 C         139.3313  137.9038  163.7680 C.3     1  UNL1        0.0005
      8 C         140.7385  137.4467  164.0150 C.3     1  UNL1        0.0005
      9 C         141.8344  138.4552  164.1931 C.3     1  UNL1        0.0096
     10 C         142.6775  138.4354  165.4335 C.3     1  UNL1        0.0854
     11 C         142.2663  139.2371  166.6328 C.2     1  UNL1        0.2261
     12 O         143.1122  139.2213  167.8715 O.2     1  UNL1       -0.2748
     13 N         141.0094  140.0547  166.5934 N.am    1  UNL1       -0.2839
     14 H         140.4542  140.0650  165.7804 H       1  UNL1        0.1549
     15 C         140.5982  140.8564  167.7927 C.ar    1  UNL1        0.0503
     16 C         139.7390  140.2335  168.8527 C.ar    1  UNL1        0.0147
     17 C         139.3279  141.0352  170.0519 C.ar    1  UNL1        0.0013
     18 C         139.7759  142.4599  170.1911 C.ar    1  UNL1        0.0001
     19 C         140.6351  143.0829  169.1311 C.ar    1  UNL1        0.0013
     20 C         141.0463  142.2811  167.9319 C.ar    1  UNL1        0.0147
     21 O         139.9280  141.8464  161.0799 O.3     1  UNL1       -0.2589
     22 C         140.9928  142.4082  161.9747 C.3     1  UNL1        0.1732
     23 C         139.9368  142.9377  162.8990 C.ar    1  UNL1        0.0120
     24 C         139.0984  144.1110  162.4861 C.ar    1  UNL1       -0.0013
     25 C         138.0423  144.6405  163.4104 C.ar    1  UNL1       -0.0002
     26 C         137.8246  143.9967  164.7476 C.ar    1  UNL1       -0.0000
     27 C         138.6630  142.8234  165.1605 C.ar    1  UNL1       -0.0002
     28 C         139.7190  142.2938  164.2362 C.ar    1  UNL1       -0.0013
     29 C         142.0489  141.8786  161.0504 C.ar    1  UNL1        0.0120
     30 C         142.9456  140.7623  161.4973 C.ar    1  UNL1       -0.0013
     31 C         144.0016  140.2328  160.5730 C.ar    1  UNL1       -0.0002
     32 C         144.1610  140.8196  159.2018 C.ar    1  UNL1       -0.0000
     33 C         143.2643  141.9360  158.7549 C.ar    1  UNL1       -0.0002
     34 C         142.2083  142.4655  159.6791 C.ar    1  UNL1       -0.0013
     35 C         142.0576  142.9699  162.8694 C.ar    1  UNL1        0.0120
     36 C         142.6596  144.3105  162.5686 C.ar    1  UNL1       -0.0013
     37 C         143.7245  144.8723  163.4634 C.ar    1  UNL1       -0.0002
     38 C         144.1872  144.0935  164.6590 C.ar    1  UNL1       -0.0000
     39 C         143.5852  142.7529  164.9598 C.ar    1  UNL1       -0.0002
     40 C         142.5204  142.1912  164.0650 C.ar    1  UNL1       -0.0013
@<TRIPOS>BOND
     1     1     2    2
     2     2     5    1
     3     5     6    1
     4     6     7    1
     5     7     8    1
     6     8     9    1
     7     9    10    1
     8    10    11    1
     9    11    12    2
    10    11    13   am
    11    13    15    1
    12    15    16   ar
    13    16    17   ar
    14    17    18   ar
    15    18    19   ar
    16    19    20   ar
    17     2     3   am
    18     3    21    1
    19    21    22    1
    20    22    23    1
    21    23    24   ar
    22    24    25   ar
    23    25    26   ar
    24    26    27   ar
    25    27    28   ar
    26    22    29    1
    27    29    30   ar
    28    30    31   ar
    29    31    32   ar
    30    32    33   ar
    31    33    34   ar
    32    22    35    1
    33    35    36   ar
    34    36    37   ar
    35    37    38   ar
    36    38    39   ar
    37    39    40   ar
    38    20    15   ar
    39    28    23   ar
    40    34    29   ar
    41    40    35   ar
    42    13    14    1
    43     3     4    1
@<TRIPOS>MOLECULE
*****
 40 43 0 0 0
SMALL
GASTEIGER

@<TRIPOS>ATOM
      1 O         143.7003  142.8390  167.3221 O.2     1  UNL1       -0.2730
      2 C         143.5250  142.8595  165.8325 C.2     1  UNL1        0.2445
      3 N         142.1658  142.6485  165.2342 N.am    1  UNL1       -0.1924
      4 H         142.0508  142.6619  164.2566 H       1  UNL1        0.1825
      5 C         144.7091  143.0908  164.9411 C.3     1  UNL1        0.0871
      6 C         145.1959  141.9942  164.0410 C.3     1  UNL1        0.0096
      7 C         144.7034  140.5907  164.2348 C.3     1  UNL1        0.0005
      8 C         143.7176  140.0017  163.2696 C.3     1  UNL1        0.0005
      9 C         144.1796  139.5195  161.9265 C.3     1  UNL1        0.0096
     10 C         143.9406  140.3579  160.7058 C.3     1  UNL1        0.0854
     11 C         143.3591  141.7338  160.8430 C.2     1  UNL1        0.2261
     12 O         144.2477  142.9376  160.7373 O.2     1  UNL1       -0.2748
     13 N         141.8889  141.9059  161.0859 N.am    1  UNL1       -0.2839
     14 H         141.3057  141.1158  161.1552 H       1  UNL1        0.1549
     15 C         141.3074  143.2818  161.2230 C.ar    1  UNL1        0.0503
     16 C         141.3169  143.9707  162.5554 C.ar    1  UNL1        0.0147
     17 C         140.7354  145.3465  162.6925 C.ar    1  UNL1        0.0013
     18 C         140.1443  146.0335  161.4972 C.ar    1  UNL1        0.0001
     19 C         140.1348  145.3446  160.1648 C.ar    1  UNL1        0.0013
     20 C         140.7163  143.9688  160.0277 C.ar    1  UNL1        0.0147
     21 O         140.9817  142.4171  166.1256 O.3     1  UNL1       -0.2589
     22 C         140.2574  141.1043  166.0848 C.3     1  UNL1        0.1732
     23 C         139.4607  141.5804  164.9064 C.ar    1  UNL1        0.0120
     24 C         139.4909  140.8098  163.6199 C.ar    1  UNL1       -0.0013
     25 C         138.6942  141.2860  162.4415 C.ar    1  UNL1       -0.0002
     26 C         137.8673  142.5328  162.5497 C.ar    1  UNL1       -0.0000
     27 C         137.8371  143.3034  163.8363 C.ar    1  UNL1       -0.0002
     28 C         138.6338  142.8273  165.0146 C.ar    1  UNL1       -0.0013
     29 C         141.0541  140.6281  167.2631 C.ar    1  UNL1        0.0120
     30 C         140.8031  141.2101  168.6227 C.ar    1  UNL1       -0.0013
     31 C         141.5999  140.7339  169.8011 C.ar    1  UNL1       -0.0002
     32 C         142.6475  139.6758  169.6199 C.ar    1  UNL1       -0.0000
     33 C         142.8984  139.0938  168.2603 C.ar    1  UNL1       -0.0002
     34 C         142.1017  139.5699  167.0820 C.ar    1  UNL1       -0.0013
     35 C         139.5331  139.7914  166.0440 C.ar    1  UNL1        0.0120
     36 C         139.9982  138.7067  165.1183 C.ar    1  UNL1       -0.0013
     37 C         139.2739  137.3937  165.0775 C.ar    1  UNL1       -0.0002
     38 C         138.0844  137.1656  165.9624 C.ar    1  UNL1       -0.0000
     39 C         137.6193  138.2504  166.8881 C.ar    1  UNL1       -0.0002
     40 C         138.3436  139.5632  166.9289 C.ar    1  UNL1       -0.0013
@<TRIPOS>BOND
     1     1     2    2
     2     2     5    1
     3     5     6    1
     4     6     7    1
     5     7     8    1
     6     8     9    1
     7     9    10    1
     8    10    11    1
     9    11    12    2
    10    11    13   am
    11    13    15    1
    12    15    16   ar
    13    16    17   ar
    14    17    18   ar
    15    18    19   ar
    16    19    20   ar
    17     2     3   am
    18     3    21    1
    19    21    22    1
    20    22    23    1
    21    23    24   ar
    22    24    25   ar
    23    25    26   ar
    24    26    27   ar
    25    27    28   ar
    26    22    29    1
    27    29    30   ar
    28    30    31   ar
    29    31    32   ar
    30    32    33   ar
    31    33    34   ar
    32    22    35    1
    33    35    36   ar
    34    36    37   ar
    35    37    38   ar
    36    38    39   ar
    37    39    40   ar
    38    20    15   ar
    39    28    23   ar
    40    34    29   ar
    41    40    35   ar
    42    13    14    1
    43     3     4    1
@<TRIPOS>MOLECULE
*****
 40 43 0 0 0
SMALL
GASTEIGER

@<TRIPOS>ATOM
      1 O         141.3271  142.1872  161.6305 O.2     1  UNL1       -0.2730
      2 C         140.0139  141.7228  162.1872 C.2     1  UNL1        0.2445
      3 N         139.9800  140.6407  163.2254 N.am    1  UNL1       -0.1924
      4 H         139.1181  140.3359  163.5908 H       1  UNL1        0.1825
      5 C         138.7346  142.3405  161.7056 C.3     1  UNL1        0.0871
      6 C         137.7891  142.9681  162.6864 C.3     1  UNL1        0.0096
      7 C         138.2847  143.4008  164.0343 C.3     1  UNL1        0.0005
      8 C         138.9888  144.7164  164.1878 C.3     1  UNL1        0.0005
      9 C         140.4841  144.7827  164.0896 C.3     1  UNL1        0.0096
     10 C         141.1299  145.6655  163.0631 C.3     1  UNL1        0.0854
     11 C         140.6824  145.6040  161.6327 C.2     1  UNL1        0.2261
     12 O         139.3338  146.1344  161.2453 O.2     1  UNL1       -0.2748
     13 N         141.5834  145.0121  160.5898 N.am    1  UNL1       -0.2839
     14 H         142.4685  144.6639  160.8440 H       1  UNL1        0.1549
     15 C         141.1359  144.9506  159.1594 C.ar    1  UNL1        0.0503
     16 C         140.0933  143.9563  158.7418 C.ar    1  UNL1        0.0147
     17 C         139.6458  143.8949  157.3114 C.ar    1  UNL1        0.0013
     18 C         140.2410  144.8276  156.2986 C.ar    1  UNL1        0.0001
     19 C         141.2836  145.8219  156.7162 C.ar    1  UNL1        0.0013
     20 C         141.7310  145.8833  158.1466 C.ar    1  UNL1        0.0147
     21 O         141.2593  140.0230  163.7070 O.3     1  UNL1       -0.2589
     22 C         141.6642  140.1611  165.1447 C.3     1  UNL1        0.1732
     23 C         142.9303  140.8455  164.7224 C.ar    1  UNL1        0.0120
     24 C         142.9722  142.3405  164.6070 C.ar    1  UNL1       -0.0013
     25 C         144.2384  143.0249  164.1847 C.ar    1  UNL1       -0.0002
     26 C         145.4627  142.2144  163.8778 C.ar    1  UNL1       -0.0000
     27 C         145.4208  140.7194  163.9933 C.ar    1  UNL1       -0.0002
     28 C         144.1547  140.0350  164.4156 C.ar    1  UNL1       -0.0013
     29 C         140.3981  139.4766  165.5670 C.ar    1  UNL1        0.0120
     30 C         139.4536  140.1617  166.5097 C.ar    1  UNL1       -0.0013
     31 C         138.1874  139.4772  166.9320 C.ar    1  UNL1       -0.0002
     32 C         137.8657  138.1076  166.4116 C.ar    1  UNL1       -0.0000
     33 C         138.8102  137.4226  165.4689 C.ar    1  UNL1       -0.0002
     34 C         140.0763  138.1070  165.0466 C.ar    1  UNL1       -0.0013
     35 C         142.0691  140.2991  166.5824 C.ar    1  UNL1        0.0120
     36 C         142.0574  141.6479  167.2387 C.ar    1  UNL1       -0.0013
     37 C         142.4622  141.7860  168.6764 C.ar    1  UNL1       -0.0002
     38 C         142.8788  140.5753  169.4578 C.ar    1  UNL1       -0.0000
     39 C         142.8905  139.2265  168.8016 C.ar    1  UNL1       -0.0002
     40 C         142.4856  139.0884  167.3639 C.ar    1  UNL1       -0.0013
@<TRIPOS>BOND
     1     1     2    2
     2     2     5    1
     3     5     6    1
     4     6     7    1
     5     7     8    1
     6     8     9    1
     7     9    10    1
     8    10    11    1
     9    11    12    2
    10    11    13   am
    11    13    15    1
    12    15    16   ar
    13    16    17   ar
    14    17    18   ar
    15    18    19   ar
    16    19    20   ar
    17     2     3   am
    18     3    21    1
    19    21    22    1
    20    22    23    1
    21    23    24   ar
    22    24    25   ar
    23    25    26   ar
    24    26    27   ar
    25    27    28   ar
    26    22    29    1
    27    29    30   ar
    28    30    31   ar
    29    31    32   ar
    30    32    33   ar
    31    33    34   ar
    32    22    35    1
    33    35    36   ar
    34    36    37   ar
    35    37    38   ar
    36    38    39   ar
    37    39    40   ar
    38    20    15   ar
    39    28    23   ar
    40    34    29   ar
    41    40    35   ar
    42    13    14    1
    43     3     4    1
@<TRIPOS>MOLECULE
*****
 40 43 0 0 0
SMALL
GASTEIGER

@<TRIPOS>ATOM
      1 O         145.0653  141.0340  162.1264 O.2     1  UNL1       -0.2730
      2 C         144.0260  140.3195  161.3144 C.2     1  UNL1        0.2445
      3 N         142.7729  141.0344  160.9038 N.am    1  UNL1       -0.1924
      4 H         142.0908  140.5654  160.3708 H       1  UNL1        0.1825
      5 C         144.2399  138.8901  160.9131 C.3     1  UNL1        0.0871
      6 C         143.4914  137.7946  161.6129 C.3     1  UNL1        0.0096
      7 C         142.6809  138.1033  162.8366 C.3     1  UNL1        0.0005
      8 C         141.3961  137.3716  163.0895 C.3     1  UNL1        0.0005
      9 C         140.7655  137.4114  164.4499 C.3     1  UNL1        0.0096
     10 C         139.4618  138.1251  164.6516 C.3     1  UNL1        0.0854
     11 C         139.2789  139.0340  165.8309 C.2     1  UNL1        0.2261
     12 O         137.9148  139.2282  166.4237 O.2     1  UNL1       -0.2748
     13 N         140.4601  139.7487  166.4172 N.am    1  UNL1       -0.2839
     14 H         141.3555  139.6212  166.0281 H       1  UNL1        0.1549
     15 C         140.2773  140.6577  167.5964 C.ar    1  UNL1        0.0503
     16 C         139.8238  140.0975  168.9119 C.ar    1  UNL1        0.0147
     17 C         139.6410  141.0064  170.0910 C.ar    1  UNL1        0.0013
     18 C         139.9116  142.4755  169.9547 C.ar    1  UNL1        0.0001
     19 C         140.3651  143.0356  168.6392 C.ar    1  UNL1        0.0013
     20 C         140.5479  142.1267  167.4601 C.ar    1  UNL1        0.0147
     21 O         142.5591  142.4639  161.3051 O.3     1  UNL1       -0.2589
     22 C         141.4232  142.8253  162.2155 C.3     1  UNL1        0.1732
     23 C         140.4690  142.7324  161.0619 C.ar    1  UNL1        0.0120
     24 C         140.4962  143.7715  159.9805 C.ar    1  UNL1       -0.0013
     25 C         139.5419  143.6785  158.8268 C.ar    1  UNL1       -0.0002
     26 C         138.5606  142.5464  158.7546 C.ar    1  UNL1       -0.0000
     27 C         138.5334  141.5072  159.8361 C.ar    1  UNL1       -0.0002
     28 C         139.4876  141.6002  160.9897 C.ar    1  UNL1       -0.0013
     29 C         142.3773  142.9183  163.3691 C.ar    1  UNL1        0.0120
     30 C         142.4916  141.7819  164.3414 C.ar    1  UNL1       -0.0013
     31 C         143.4458  141.8749  165.4951 C.ar    1  UNL1       -0.0002
     32 C         144.2858  143.1043  165.6764 C.ar    1  UNL1       -0.0000
     33 C         144.1715  144.2408  164.7041 C.ar    1  UNL1       -0.0002
     34 C         143.2174  144.1478  163.5504 C.ar    1  UNL1       -0.0013
     35 C         140.2872  143.1868  163.1259 C.ar    1  UNL1        0.0120
     36 C         140.0099  144.6262  163.4441 C.ar    1  UNL1       -0.0013
     37 C         138.8739  144.9877  164.3546 C.ar    1  UNL1       -0.0002
     38 C         138.0153  143.9098  164.9468 C.ar    1  UNL1       -0.0000
     39 C         138.2926  142.4704  164.6287 C.ar    1  UNL1       -0.0002
     40 C         139.4285  142.1089  163.7182 C.ar    1  UNL1       -0.0013
@<TRIPOS>BOND
     1     1     2    2
     2     2     5    1
     3     5     6    1
     4     6     7    1
     5     7     8    1
     6     8     9    1
     7     9    10    1
     8    10    11    1
     9    11    12    2
    10    11    13   am
    11    13    15    1
    12    15    16   ar
    13    16    17   ar
    14    17    18   ar
    15    18    19   ar
    16    19    20   ar
    17     2     3   am
    18     3    21    1
    19    21    22    1
    20    22    23    1
    21    23    24   ar
    22    24    25   ar
    23    25    26   ar
    24    26    27   ar
    25    27    28   ar
    26    22    29    1
    27    29    30   ar
    28    30    31   ar
    29    31    32   ar
    30    32    33   ar
    31    33    34   ar
    32    22    35    1
    33    35    36   ar
    34    36    37   ar
    35    37    38   ar
    36    38    39   ar
    37    39    40   ar
    38    20    15   ar
    39    28    23   ar
    40    34    29   ar
    41    40    35   ar
    42    13    14    1
    43     3     4    1
@<TRIPOS>MOLECULE
*****
 40 43 0 0 0
SMALL
GASTEIGER

@<TRIPOS>ATOM
      1 O         137.5247  143.1615  162.0942 O.2     1  UNL1       -0.2730
      2 C         138.3466  141.9907  161.6429 C.2     1  UNL1        0.2445
      3 N         138.8227  140.9788  162.6424 N.am    1  UNL1       -0.1924
      4 H         139.3622  140.2104  162.3462 H       1  UNL1        0.1825
      5 C         138.6923  141.8319  160.1919 C.3     1  UNL1        0.0871
      6 C         140.0043  142.3415  159.6734 C.3     1  UNL1        0.0096
      7 C         140.4336  142.0187  158.2729 C.3     1  UNL1        0.0005
      8 C         141.1842  140.7508  157.9919 C.3     1  UNL1        0.0005
      9 C         140.6010  139.4289  158.3951 C.3     1  UNL1        0.0096
     10 C         141.3078  138.5741  159.4049 C.3     1  UNL1        0.0854
     11 C         141.9861  139.2096  160.5822 C.2     1  UNL1        0.2261
     12 O         141.1754  139.6633  161.7599 O.2     1  UNL1       -0.2748
     13 N         143.4750  139.3912  160.5820 N.am    1  UNL1       -0.2839
     14 H         144.0071  139.0934  159.8090 H       1  UNL1        0.1549
     15 C         144.1533  140.0267  161.7593 C.ar    1  UNL1        0.0503
     16 C         144.6657  141.4330  161.6607 C.ar    1  UNL1        0.0147
     17 C         145.3439  142.0684  162.8380 C.ar    1  UNL1        0.0013
     18 C         145.5098  141.2975  164.1140 C.ar    1  UNL1        0.0001
     19 C         144.9975  139.8912  164.2127 C.ar    1  UNL1        0.0013
     20 C         144.3192  139.2558  163.0354 C.ar    1  UNL1        0.0147
     21 O         138.4770  141.1376  164.0934 O.3     1  UNL1       -0.2589
     22 C         139.5428  140.9914  165.1387 C.3     1  UNL1        0.1732
     23 C         140.1343  142.3045  164.7192 C.ar    1  UNL1        0.0120
     24 C         141.5088  142.3508  164.1205 C.ar    1  UNL1       -0.0013
     25 C         142.1003  143.6639  163.7010 C.ar    1  UNL1       -0.0002
     26 C         141.3172  144.9306  163.8801 C.ar    1  UNL1       -0.0000
     27 C         139.9427  144.8843  164.4788 C.ar    1  UNL1       -0.0002
     28 C         139.3512  143.5713  164.8983 C.ar    1  UNL1       -0.0013
     29 C         138.9513  139.6784  165.5583 C.ar    1  UNL1        0.0120
     30 C         139.2532  138.4353  164.7750 C.ar    1  UNL1       -0.0013
     31 C         138.6617  137.1222  165.1946 C.ar    1  UNL1       -0.0002
     32 C         137.7682  137.0523  166.3974 C.ar    1  UNL1       -0.0000
     33 C         137.4663  138.2954  167.1807 C.ar    1  UNL1       -0.0002
     34 C         138.0578  139.6084  166.7611 C.ar    1  UNL1       -0.0013
     35 C         140.6085  140.8453  166.1840 C.ar    1  UNL1        0.0120
     36 C         141.6853  139.8142  166.0183 C.ar    1  UNL1       -0.0013
     37 C         142.7511  139.6681  167.0637 C.ar    1  UNL1       -0.0002
     38 C         142.7402  140.5531  168.2747 C.ar    1  UNL1       -0.0000
     39 C         141.6634  141.5842  168.4404 C.ar    1  UNL1       -0.0002
     40 C         140.5976  141.7303  167.3951 C.ar    1  UNL1       -0.0013
@<TRIPOS>BOND
     1     1     2    2
     2     2     5    1
     3     5     6    1
     4     6     7    1
     5     7     8    1
     6     8     9    1
     7     9    10    1
     8    10    11    1
     9    11    12    2
    10    11    13   am
    11    13    15    1
    12    15    16   ar
    13    16    17   ar
    14    17    18   ar
    15    18    19   ar
    16    19    20   ar
    17     2     3   am
    18     3    21    1
    19    21    22    1
    20    22    23    1
    21    23    24   ar
    22    24    25   ar
    23    25    26   ar
    24    26    27   ar
    25    27    28   ar
    26    22    29    1
    27    29    30   ar
    28    30    31   ar
    29    31    32   ar
    30    32    33   ar
    31    33    34   ar
    32    22    35    1
    33    35    36   ar
    34    36    37   ar
    35    37    38   ar
    36    38    39   ar
    37    39    40   ar
    38    20    15   ar
    39    28    23   ar
    40    34    29   ar
    41    40    35   ar
    42    13    14    1
    43     3     4    1
@<TRIPOS>MOLECULE
*****
 40 43 0 0 0
SMALL
GASTEIGER

@<TRIPOS>ATOM
      1 O         145.0663  141.1334  161.9171 O.2     1  UNL1       -0.2730
      2 C         144.0140  140.3954  161.1438 C.2     1  UNL1        0.2445
      3 N         142.7321  141.0827  160.7775 N.am    1  UNL1       -0.1924
      4 H         142.0414  140.5983  160.2700 H       1  UNL1        0.1825
      5 C         144.2437  138.9701  160.7367 C.3     1  UNL1        0.0871
      6 C         143.6915  137.8532  161.5719 C.3     1  UNL1        0.0096
      7 C         142.8377  138.1613  162.7661 C.3     1  UNL1        0.0005
      8 C         141.3864  137.7818  162.7685 C.3     1  UNL1        0.0005
      9 C         140.3836  138.6564  163.4609 C.3     1  UNL1        0.0096
     10 C         139.6652  138.1551  164.6784 C.3     1  UNL1        0.0854
     11 C         139.4304  139.0726  165.8417 C.2     1  UNL1        0.2261
     12 O         138.0346  139.3198  166.3320 O.2     1  UNL1       -0.2748
     13 N         140.5915  139.7427  166.5145 N.am    1  UNL1       -0.2839
     14 H         141.5076  139.5804  166.1927 H       1  UNL1        0.1549
     15 C         140.3567  140.6602  167.6778 C.ar    1  UNL1        0.0503
     16 C         140.6478  142.1259  167.5477 C.ar    1  UNL1        0.0147
     17 C         140.4130  143.0433  168.7110 C.ar    1  UNL1        0.0013
     18 C         139.8871  142.4950  170.0043 C.ar    1  UNL1        0.0001
     19 C         139.5960  141.0294  170.1345 C.ar    1  UNL1        0.0013
     20 C         139.8308  140.1120  168.9712 C.ar    1  UNL1        0.0147
     21 O         142.5023  142.5081  161.1846 O.3     1  UNL1       -0.2589
     22 C         141.3653  142.8526  162.1003 C.3     1  UNL1        0.1732
     23 C         142.3215  142.9467  163.2521 C.ar    1  UNL1        0.0120
     24 C         142.5014  141.7779  164.1749 C.ar    1  UNL1       -0.0013
     25 C         143.4576  141.8720  165.3269 C.ar    1  UNL1       -0.0002
     26 C         144.2339  143.1349  165.5559 C.ar    1  UNL1       -0.0000
     27 C         144.0540  144.3037  164.6331 C.ar    1  UNL1       -0.0002
     28 C         143.0979  144.2096  163.4813 C.ar    1  UNL1       -0.0013
     29 C         140.4092  142.7586  160.9484 C.ar    1  UNL1        0.0120
     30 C         140.4824  143.7550  159.8296 C.ar    1  UNL1       -0.0013
     31 C         139.5262  143.6608  158.6776 C.ar    1  UNL1       -0.0002
     32 C         138.4968  142.5704  158.6446 C.ar    1  UNL1       -0.0000
     33 C         138.4235  141.5740  159.7635 C.ar    1  UNL1       -0.0002
     34 C         139.3797  141.6680  160.9153 C.ar    1  UNL1       -0.0013
     35 C         140.2284  143.1972  163.0159 C.ar    1  UNL1        0.0120
     36 C         139.7770  144.6215  163.1481 C.ar    1  UNL1       -0.0013
     37 C         138.6399  144.9660  164.0638 C.ar    1  UNL1       -0.0002
     38 C         137.9543  143.8862  164.8473 C.ar    1  UNL1       -0.0000
     39 C         138.4057  142.4619  164.7152 C.ar    1  UNL1       -0.0002
     40 C         139.5427  142.1173  163.7995 C.ar    1  UNL1       -0.0013
@<TRIPOS>BOND
     1     1     2    2
     2     2     5    1
     3     5     6    1
     4     6     7    1
     5     7     8    1
     6     8     9    1
     7     9    10    1
     8    10    11    1
     9    11    12    2
    10    11    13   am
    11    13    15    1
    12    15    16   ar
    13    16    17   ar
    14    17    18   ar
    15    18    19   ar
    16    19    20   ar
    17     2     3   am
    18     3    21    1
    19    21    22    1
    20    22    23    1
    21    23    24   ar
    22    24    25   ar
    23    25    26   ar
    24    26    27   ar
    25    27    28   ar
    26    22    29    1
    27    29    30   ar
    28    30    31   ar
    29    31    32   ar
    30    32    33   ar
    31    33    34   ar
    32    22    35    1
    33    35    36   ar
    34    36    37   ar
    35    37    38   ar
    36    38    39   ar
    37    39    40   ar
    38    20    15   ar
    39    28    23   ar
    40    34    29   ar
    41    40    35   ar
    42    13    14    1
    43     3     4    1
