@<TRIPOS>MOLECULE
*****
 30 33 0 0 0
SMALL
GASTEIGER

@<TRIPOS>ATOM
      1 C         142.6313  143.7420  158.2271 C.ar    1  UNL1        0.1739
      2 C         142.4558  142.9727  159.5027 C.ar    1  UNL1        0.0593
      3 C         141.5521  143.4994  160.5779 C.ar    1  UNL1        0.0901
      4 N         141.3766  142.7300  161.8536 N.ar    1  UNL1       -0.2134
      5 C         140.4730  143.2566  162.9288 C.ar    1  UNL1        0.2214
      6 N         139.7448  144.5527  162.7283 N.ar    1  UNL1       -0.1991
      7 C         139.9204  145.3220  161.4527 C.ar    1  UNL1        0.1298
      8 N         139.1923  146.6180  161.2523 N.pl3   1  UNL1       -0.3425
      9 C         140.8240  144.7954  160.3775 C.ar    1  UNL1        0.0522
     10 C         140.9995  145.5647  159.1019 C.ar    1  UNL1        0.0443
     11 C         141.9032  145.0380  158.0267 C.ar    1  UNL1        0.1726
     12 H         138.5992  146.9637  161.9580 H       1  UNL1        0.1437
     13 H         139.3075  147.1230  160.4150 H       1  UNL1        0.1437
     14 N         140.2974  142.4873  164.2044 N.pl3   1  UNL1       -0.2747
     15 C         141.2995  142.6316  165.3113 C.3     1  UNL1        0.1151
     16 C         141.1239  141.8622  166.5870 C.3     1  UNL1        0.1153
     17 N         139.9463  140.9486  166.7558 N.am    1  UNL1       -0.2701
     18 C         139.7708  140.1793  168.0314 C.2     1  UNL1        0.2839
     19 O         138.5932  139.2656  168.2002 O.2     1  UNL1       -0.2666
     20 C         138.9443  140.8043  165.6489 C.3     1  UNL1        0.1153
     21 C         139.1198  141.5736  164.3733 C.3     1  UNL1        0.1151
     22 C         140.7728  140.3236  169.1382 C.ar    1  UNL1        0.1987
     23 C         142.0418  139.5375  169.2868 C.ar    1  UNL1        0.0455
     24 C         142.7351  140.0075  170.5312 C.ar    1  UNL1        0.0440
     25 C         141.8946  141.0839  171.1518 C.ar    1  UNL1        0.1798
     26 O         140.6819  141.2792  170.2908 O.2     1  UNL1       -0.4458
     27 C         142.9852  142.3178  156.0832 C.3     1  UNL1        0.2526
     28 O         143.5349  143.2154  157.1519 O.3     1  UNL1       -0.4683
     29 O         142.0787  145.8074  156.7510 O.3     1  UNL1       -0.4684
     30 C         140.8806  146.1803  155.9291 C.3     1  UNL1        0.2526
@<TRIPOS>BOND
     1    27    28    1
     2    28     1    1
     3     1     2   ar
     4     2     3   ar
     5     3     4   ar
     6     4     5   ar
     7     5    14    1
     8    14    15    1
     9    15    16    1
    10    16    17    1
    11    17    18   am
    12    18    19    2
    13    18    22    1
    14    22    23   ar
    15    23    24   ar
    16    24    25   ar
    17    25    26   ar
    18    17    20    1
    19    20    21    1
    20     5     6   ar
    21     6     7   ar
    22     7     8    1
    23     7     9   ar
    24     9    10   ar
    25    10    11   ar
    26    11    29    1
    27    29    30    1
    28    11     1   ar
    29     9     3   ar
    30    21    14    1
    31    26    22   ar
    32     8    12    1
    33     8    13    1
@<TRIPOS>MOLECULE
*****
 30 33 0 0 0
SMALL
GASTEIGER

@<TRIPOS>ATOM
      1 C         140.4813  142.0870  168.4544 C.ar    1  UNL1        0.1739
      2 C         140.4784  142.0770  166.9545 C.ar    1  UNL1        0.0593
      3 C         139.7718  140.9810  166.2131 C.ar    1  UNL1        0.0901
      4 N         139.7689  140.9710  164.7131 N.ar    1  UNL1       -0.2134
      5 C         139.0624  139.8750  163.9718 C.ar    1  UNL1        0.2214
      6 N         138.3587  138.7890  164.7305 N.ar    1  UNL1       -0.1991
      7 C         138.3616  138.7990  166.2304 C.ar    1  UNL1        0.1298
      8 N         137.6580  137.7131  166.9890 N.pl3   1  UNL1       -0.3425
      9 C         139.0682  139.8950  166.9717 C.ar    1  UNL1        0.0522
     10 C         139.0711  139.9051  168.4717 C.ar    1  UNL1        0.0443
     11 C         139.7777  141.0011  169.2130 C.ar    1  UNL1        0.1726
     12 H         137.1943  136.9937  166.5024 H       1  UNL1        0.1437
     13 H         137.6599  137.7196  167.9735 H       1  UNL1        0.1437
     14 N         139.0594  139.8650  162.4719 N.pl3   1  UNL1       -0.2747
     15 C         138.0732  140.7071  161.7181 C.3     1  UNL1        0.1151
     16 C         138.0703  140.6971  160.2181 C.3     1  UNL1        0.1153
     17 N         139.0536  139.8449  159.4719 N.am    1  UNL1       -0.2701
     18 C         139.0507  139.8349  157.9720 C.2     1  UNL1        0.2839
     19 O         140.0341  138.9827  157.2257 O.2     1  UNL1       -0.2666
     20 C         140.0399  139.0028  160.2256 C.3     1  UNL1        0.1153
     21 C         140.0428  139.0128  161.7256 C.3     1  UNL1        0.1151
     22 C         138.0644  140.6770  157.2182 C.ar    1  UNL1        0.1987
     23 C         138.2931  142.0759  156.7273 C.ar    1  UNL1        0.0455
     24 C         137.0463  142.5315  156.0287 C.ar    1  UNL1        0.0440
     25 C         136.0471  141.4143  156.0880 C.ar    1  UNL1        0.1798
     26 O         136.6764  140.2682  156.8231 O.2     1  UNL1       -0.4458
     27 C         140.3962  144.2084  169.9519 C.3     1  UNL1        0.2526
     28 O         141.1879  143.1830  169.1957 O.3     1  UNL1       -0.4683
     29 O         139.7806  141.0110  170.7130 O.3     1  UNL1       -0.4684
     30 C         141.0467  140.7191  171.4625 C.3     1  UNL1        0.2526
@<TRIPOS>BOND
     1    27    28    1
     2    28     1    1
     3     1     2   ar
     4     2     3   ar
     5     3     4   ar
     6     4     5   ar
     7     5    14    1
     8    14    15    1
     9    15    16    1
    10    16    17    1
    11    17    18   am
    12    18    19    2
    13    18    22    1
    14    22    23   ar
    15    23    24   ar
    16    24    25   ar
    17    25    26   ar
    18    17    20    1
    19    20    21    1
    20     5     6   ar
    21     6     7   ar
    22     7     8    1
    23     7     9   ar
    24     9    10   ar
    25    10    11   ar
    26    11    29    1
    27    29    30    1
    28    11     1   ar
    29     9     3   ar
    30    21    14    1
    31    26    22   ar
    32     8    12    1
    33     8    13    1
@<TRIPOS>MOLECULE
*****
 30 33 0 0 0
SMALL
GASTEIGER

@<TRIPOS>ATOM
      1 C         140.9889  141.8713  168.5245 C.ar    1  UNL1        0.1739
      2 C         141.0228  141.7261  167.0320 C.ar    1  UNL1        0.0593
      3 C         140.1209  140.7377  166.3539 C.ar    1  UNL1        0.0901
      4 N         140.1548  140.5926  164.8613 N.ar    1  UNL1       -0.2134
      5 C         139.2530  139.6042  164.1833 C.ar    1  UNL1        0.2214
      6 N         138.3173  138.7609  164.9978 N.ar    1  UNL1       -0.1991
      7 C         138.2834  138.9061  166.4904 C.ar    1  UNL1        0.1298
      8 N         137.3478  138.0629  167.3048 N.pl3   1  UNL1       -0.3425
      9 C         139.1853  139.8945  167.1684 C.ar    1  UNL1        0.0522
     10 C         139.1514  140.0397  168.6610 C.ar    1  UNL1        0.0443
     11 C         140.0532  141.0281  169.3390 C.ar    1  UNL1        0.1726
     12 H         136.7559  137.4142  166.8598 H       1  UNL1        0.1437
     13 H         137.3255  138.1582  168.2845 H       1  UNL1        0.1437
     14 N         139.2869  139.4590  162.6907 N.pl3   1  UNL1       -0.2747
     15 C         140.2981  138.5568  162.0477 C.3     1  UNL1        0.1151
     16 C         140.3319  138.4116  160.5551 C.3     1  UNL1        0.1153
     17 N         139.3546  139.1686  159.7056 N.am    1  UNL1       -0.2701
     18 C         139.3884  139.0234  158.2130 C.2     1  UNL1        0.2839
     19 O         138.4111  139.7805  157.3634 O.2     1  UNL1       -0.2666
     20 C         138.3434  140.0708  160.3486 C.3     1  UNL1        0.1153
     21 C         138.3095  140.2160  161.8411 C.3     1  UNL1        0.1151
     22 C         140.3996  138.1212  157.5700 C.ar    1  UNL1        0.1987
     23 C         140.1273  137.1263  156.4808 C.ar    1  UNL1        0.0455
     24 C         141.4201  136.4457  156.1409 C.ar    1  UNL1        0.0440
     25 C         142.4914  137.0199  157.0199 C.ar    1  UNL1        0.1798
     26 O         141.8607  138.0554  157.9031 O.2     1  UNL1       -0.4458
     27 C         143.3437  142.5406  169.3945 C.3     1  UNL1        0.2526
     28 O         141.8907  142.8597  169.2026 O.3     1  UNL1       -0.4683
     29 O         140.0193  141.1733  170.8317 O.3     1  UNL1       -0.4684
     30 C         141.1765  140.6959  171.6581 C.3     1  UNL1        0.2526
@<TRIPOS>BOND
     1    27    28    1
     2    28     1    1
     3     1     2   ar
     4     2     3   ar
     5     3     4   ar
     6     4     5   ar
     7     5    14    1
     8    14    15    1
     9    15    16    1
    10    16    17    1
    11    17    18   am
    12    18    19    2
    13    18    22    1
    14    22    23   ar
    15    23    24   ar
    16    24    25   ar
    17    25    26   ar
    18    17    20    1
    19    20    21    1
    20     5     6   ar
    21     6     7   ar
    22     7     8    1
    23     7     9   ar
    24     9    10   ar
    25    10    11   ar
    26    11    29    1
    27    29    30    1
    28    11     1   ar
    29     9     3   ar
    30    21    14    1
    31    26    22   ar
    32     8    12    1
    33     8    13    1
@<TRIPOS>MOLECULE
*****
 30 33 0 0 0
SMALL
GASTEIGER

@<TRIPOS>ATOM
      1 C         142.8492  135.4129  156.4713 C.ar    1  UNL1        0.1739
      2 C         142.7052  136.6476  157.3107 C.ar    1  UNL1        0.0593
      3 C         141.4812  137.5048  157.1800 C.ar    1  UNL1        0.0901
      4 N         141.3372  138.7395  158.0196 N.ar    1  UNL1       -0.2134
      5 C         140.1132  139.5968  157.8889 C.ar    1  UNL1        0.2214
      6 N         139.0333  139.2192  156.9187 N.ar    1  UNL1       -0.1991
      7 C         139.1773  137.9845  156.0792 C.ar    1  UNL1        0.1298
      8 N         138.0974  137.6070  155.1091 N.pl3   1  UNL1       -0.3425
      9 C         140.4013  137.1273  156.2099 C.ar    1  UNL1        0.0522
     10 C         140.5453  135.8926  155.3704 C.ar    1  UNL1        0.0443
     11 C         141.7693  135.0354  155.5011 C.ar    1  UNL1        0.1726
     12 H         137.2941  138.1697  155.0233 H       1  UNL1        0.1437
     13 H         138.1919  136.7966  154.5581 H       1  UNL1        0.1437
     14 N         139.9692  140.8315  158.7283 N.pl3   1  UNL1       -0.2747
     15 C         139.6259  140.7131  160.1837 C.3     1  UNL1        0.1151
     16 C         139.4818  141.9479  161.0231 C.3     1  UNL1        0.1153
     17 N         139.6811  143.3009  160.4072 N.am    1  UNL1       -0.2701
     18 C         139.5370  144.5356  161.2467 C.2     1  UNL1        0.2839
     19 O         139.7363  145.8888  160.6308 O.2     1  UNL1       -0.2666
     20 C         140.0244  143.4193  158.9518 C.3     1  UNL1        0.1153
     21 C         140.1685  142.1846  158.1124 C.3     1  UNL1        0.1151
     22 C         139.1937  144.4173  162.7020 C.ar    1  UNL1        0.1987
     23 C         137.8125  144.3001  163.2754 C.ar    1  UNL1        0.0455
     24 C         137.9366  144.2057  164.7674 C.ar    1  UNL1        0.0440
     25 C         139.3943  144.2645  165.1160 C.ar    1  UNL1        0.1798
     26 O         140.1712  144.3953  163.8396 O.2     1  UNL1       -0.4458
     27 C         144.1119  133.4535  157.6186 C.3     1  UNL1        0.2526
     28 O         144.0732  134.5557  156.6020 O.3     1  UNL1       -0.4683
     29 O         141.9133  133.8006  154.6616 O.3     1  UNL1       -0.4684
     30 C         141.3742  132.4909  155.1555 C.3     1  UNL1        0.2526
@<TRIPOS>BOND
     1    27    28    1
     2    28     1    1
     3     1     2   ar
     4     2     3   ar
     5     3     4   ar
     6     4     5   ar
     7     5    14    1
     8    14    15    1
     9    15    16    1
    10    16    17    1
    11    17    18   am
    12    18    19    2
    13    18    22    1
    14    22    23   ar
    15    23    24   ar
    16    24    25   ar
    17    25    26   ar
    18    17    20    1
    19    20    21    1
    20     5     6   ar
    21     6     7   ar
    22     7     8    1
    23     7     9   ar
    24     9    10   ar
    25    10    11   ar
    26    11    29    1
    27    29    30    1
    28    11     1   ar
    29     9     3   ar
    30    21    14    1
    31    26    22   ar
    32     8    12    1
    33     8    13    1
@<TRIPOS>MOLECULE
*****
 30 33 0 0 0
SMALL
GASTEIGER

@<TRIPOS>ATOM
      1 C         140.1876  140.5899  167.8751 C.ar    1  UNL1        0.1739
      2 C         140.1944  139.8744  166.5567 C.ar    1  UNL1        0.0593
      3 C         140.3221  140.6535  165.2813 C.ar    1  UNL1        0.0901
      4 N         140.3289  139.9379  163.9629 N.ar    1  UNL1       -0.2134
      5 C         140.4566  140.7170  162.6874 C.ar    1  UNL1        0.2214
      6 N         140.5775  142.2115  162.7303 N.ar    1  UNL1       -0.1991
      7 C         140.5706  142.9270  164.0487 C.ar    1  UNL1        0.1298
      8 N         140.6915  144.4215  164.0915 N.pl3   1  UNL1       -0.3425
      9 C         140.4429  142.1479  165.3241 C.ar    1  UNL1        0.0522
     10 C         140.4361  142.8634  166.6424 C.ar    1  UNL1        0.0443
     11 C         140.3084  142.0844  167.9179 C.ar    1  UNL1        0.1726
     12 H         140.7753  144.9327  163.2544 H       1  UNL1        0.1437
     13 H         140.6870  144.8911  164.9568 H       1  UNL1        0.1437
     14 N         140.4634  140.0015  161.3691 N.pl3   1  UNL1       -0.2747
     15 C         141.7604  139.5414  160.7722 C.3     1  UNL1        0.1151
     16 C         141.7671  138.8259  159.4538 C.3     1  UNL1        0.1153
     17 N         140.4771  138.5706  158.7324 N.am    1  UNL1       -0.2701
     18 C         140.4839  137.8551  157.4140 C.2     1  UNL1        0.2839
     19 O         139.1938  137.5997  156.6926 O.2     1  UNL1       -0.2666
     20 C         139.1802  139.0307  159.3293 C.3     1  UNL1        0.1153
     21 C         139.1733  139.7461  160.6476 C.3     1  UNL1        0.1151
     22 C         141.7808  137.3950  156.8171 C.ar    1  UNL1        0.1987
     23 C         142.7002  138.2184  155.9645 C.ar    1  UNL1        0.0455
     24 C         143.8737  137.3629  155.5884 C.ar    1  UNL1        0.0440
     25 C         143.6795  136.0110  156.2086 C.ar    1  UNL1        0.1798
     26 O         142.3860  136.0309  156.9679 O.2     1  UNL1       -0.4458
     27 C         141.2724  139.5486  169.9937 C.3     1  UNL1        0.2526
     28 O         140.0599  139.8109  169.1505 O.3     1  UNL1       -0.4683
     29 O         140.3016  142.7999  169.2363 O.3     1  UNL1       -0.4684
     30 C         141.5965  143.1984  169.8801 C.3     1  UNL1        0.2526
@<TRIPOS>BOND
     1    27    28    1
     2    28     1    1
     3     1     2   ar
     4     2     3   ar
     5     3     4   ar
     6     4     5   ar
     7     5    14    1
     8    14    15    1
     9    15    16    1
    10    16    17    1
    11    17    18   am
    12    18    19    2
    13    18    22    1
    14    22    23   ar
    15    23    24   ar
    16    24    25   ar
    17    25    26   ar
    18    17    20    1
    19    20    21    1
    20     5     6   ar
    21     6     7   ar
    22     7     8    1
    23     7     9   ar
    24     9    10   ar
    25    10    11   ar
    26    11    29    1
    27    29    30    1
    28    11     1   ar
    29     9     3   ar
    30    21    14    1
    31    26    22   ar
    32     8    12    1
    33     8    13    1
@<TRIPOS>MOLECULE
*****
 30 33 0 0 0
SMALL
GASTEIGER

@<TRIPOS>ATOM
      1 C         141.4548  141.7362  168.0040 C.ar    1  UNL1        0.1739
      2 C         141.7790  141.4545  166.5668 C.ar    1  UNL1        0.0593
      3 C         140.9664  140.4566  165.7962 C.ar    1  UNL1        0.0901
      4 N         141.2907  140.1749  164.3590 N.ar    1  UNL1       -0.2134
      5 C         140.4780  139.1771  163.5884 C.ar    1  UNL1        0.2214
      6 N         139.3410  138.4608  164.2551 N.ar    1  UNL1       -0.1991
      7 C         139.0167  138.7425  165.6922 C.ar    1  UNL1        0.1298
      8 N         137.8798  138.0263  166.3588 N.pl3   1  UNL1       -0.3425
      9 C         139.8294  139.7404  166.4628 C.ar    1  UNL1        0.0522
     10 C         139.5052  140.0221  167.9000 C.ar    1  UNL1        0.0443
     11 C         140.3178  141.0200  168.6705 C.ar    1  UNL1        0.1726
     12 H         137.3464  137.3714  165.8531 H       1  UNL1        0.1437
     13 H         137.6670  138.2112  167.3021 H       1  UNL1        0.1437
     14 N         140.8022  138.8954  162.1513 N.pl3   1  UNL1       -0.2747
     15 C         139.7135  138.9116  161.1196 C.3     1  UNL1        0.1151
     16 C         140.0378  138.6299  159.6824 C.3     1  UNL1        0.1153
     17 N         141.4508  138.3320  159.2769 N.am    1  UNL1       -0.2701
     18 C         141.7751  138.0503  157.8397 C.2     1  UNL1        0.2839
     19 O         143.1882  137.7524  157.4342 O.2     1  UNL1       -0.2666
     20 C         142.5396  138.3158  160.3085 C.3     1  UNL1        0.1153
     21 C         142.2154  138.5975  161.7457 C.3     1  UNL1        0.1151
     22 C         140.6863  138.0665  156.8081 C.ar    1  UNL1        0.1987
     23 C         140.1003  136.8660  156.1258 C.ar    1  UNL1        0.0455
     24 C         139.0441  137.3436  155.1736 C.ar    1  UNL1        0.0440
     25 C         138.9774  138.8392  155.2675 C.ar    1  UNL1        0.1798
     26 O         139.9924  139.2859  156.2777 O.2     1  UNL1       -0.4458
     27 C         143.4996  142.2923  169.5071 C.3     1  UNL1        0.2526
     28 O         142.2675  142.7341  168.7745 O.3     1  UNL1       -0.4683
     29 O         139.9935  141.3017  170.1078 O.3     1  UNL1       -0.4684
     30 C         140.7482  140.6007  171.1982 C.3     1  UNL1        0.2526
@<TRIPOS>BOND
     1    27    28    1
     2    28     1    1
     3     1     2   ar
     4     2     3   ar
     5     3     4   ar
     6     4     5   ar
     7     5    14    1
     8    14    15    1
     9    15    16    1
    10    16    17    1
    11    17    18   am
    12    18    19    2
    13    18    22    1
    14    22    23   ar
    15    23    24   ar
    16    24    25   ar
    17    25    26   ar
    18    17    20    1
    19    20    21    1
    20     5     6   ar
    21     6     7   ar
    22     7     8    1
    23     7     9   ar
    24     9    10   ar
    25    10    11   ar
    26    11    29    1
    27    29    30    1
    28    11     1   ar
    29     9     3   ar
    30    21    14    1
    31    26    22   ar
    32     8    12    1
    33     8    13    1
@<TRIPOS>MOLECULE
*****
 30 33 0 0 0
SMALL
GASTEIGER

@<TRIPOS>ATOM
      1 C         139.4238  139.7379  157.8222 C.ar    1  UNL1        0.1739
      2 C         139.0747  139.9415  159.2667 C.ar    1  UNL1        0.0593
      3 C         139.9367  139.3425  160.3383 C.ar    1  UNL1        0.0901
      4 N         139.5875  139.5461  161.7829 N.ar    1  UNL1       -0.2134
      5 C         140.4494  138.9472  162.8544 C.ar    1  UNL1        0.2214
      6 N         141.6606  138.1446  162.4815 N.ar    1  UNL1       -0.1991
      7 C         142.0097  137.9410  161.0370 C.ar    1  UNL1        0.1298
      8 N         143.2208  137.1384  160.6640 N.pl3   1  UNL1       -0.3425
      9 C         141.1478  138.5399  159.9654 C.ar    1  UNL1        0.0522
     10 C         141.4969  138.3363  158.5209 C.ar    1  UNL1        0.0443
     11 C         140.6349  138.9353  157.4493 C.ar    1  UNL1        0.1726
     12 H         143.7865  136.7453  161.3674 H       1  UNL1        0.1437
     13 H         143.4500  137.0048  159.7160 H       1  UNL1        0.1437
     14 N         140.1003  139.1507  164.2989 N.pl3   1  UNL1       -0.2747
     15 C         141.0454  139.8856  165.2026 C.3     1  UNL1        0.1151
     16 C         140.6963  140.0892  166.6472 C.3     1  UNL1        0.1153
     17 N         139.4020  139.5579  167.1880 N.am    1  UNL1       -0.2701
     18 C         139.0528  139.7615  168.6325 C.2     1  UNL1        0.2839
     19 O         137.7585  139.2302  169.1734 O.2     1  UNL1       -0.2666
     20 C         138.4568  138.8230  166.2843 C.3     1  UNL1        0.1153
     21 C         138.8060  138.6194  164.8398 C.3     1  UNL1        0.1151
     22 C         139.9980  140.4964  169.5362 C.ar    1  UNL1        0.1987
     23 C         139.8795  141.9315  169.9566 C.ar    1  UNL1        0.0455
     24 C         141.0359  142.2472  170.8584 C.ar    1  UNL1        0.0440
     25 C         141.8690  141.0073  170.9953 C.ar    1  UNL1        0.1798
     26 O         141.2275  139.9253  170.1781 O.2     1  UNL1       -0.4458
     27 C         137.2725  141.0112  157.1149 C.3     1  UNL1        0.2526
     28 O         138.5619  140.3368  156.7507 O.3     1  UNL1       -0.4683
     29 O         140.9841  138.7317  156.0048 O.3     1  UNL1       -0.4684
     30 C         140.9579  137.3532  155.4140 C.3     1  UNL1        0.2526
@<TRIPOS>BOND
     1    27    28    1
     2    28     1    1
     3     1     2   ar
     4     2     3   ar
     5     3     4   ar
     6     4     5   ar
     7     5    14    1
     8    14    15    1
     9    15    16    1
    10    16    17    1
    11    17    18   am
    12    18    19    2
    13    18    22    1
    14    22    23   ar
    15    23    24   ar
    16    24    25   ar
    17    25    26   ar
    18    17    20    1
    19    20    21    1
    20     5     6   ar
    21     6     7   ar
    22     7     8    1
    23     7     9   ar
    24     9    10   ar
    25    10    11   ar
    26    11    29    1
    27    29    30    1
    28    11     1   ar
    29     9     3   ar
    30    21    14    1
    31    26    22   ar
    32     8    12    1
    33     8    13    1
@<TRIPOS>MOLECULE
*****
 30 33 0 0 0
SMALL
GASTEIGER

@<TRIPOS>ATOM
      1 C         132.5211  140.2891  156.3957 C.ar    1  UNL1        0.1739
      2 C         133.6907  139.3555  156.2933 C.ar    1  UNL1        0.0593
      3 C         134.6659  139.4963  155.1622 C.ar    1  UNL1        0.0901
      4 N         135.8355  138.5627  155.0598 N.ar    1  UNL1       -0.2134
      5 C         136.8106  138.7035  153.9287 C.ar    1  UNL1        0.2214
      6 N         136.6162  139.7779  152.9002 N.ar    1  UNL1       -0.1991
      7 C         135.4466  140.7115  153.0027 C.ar    1  UNL1        0.1298
      8 N         135.2523  141.7859  151.9741 N.pl3   1  UNL1       -0.3425
      9 C         134.4715  140.5707  154.1337 C.ar    1  UNL1        0.0522
     10 C         133.3019  141.5042  154.2362 C.ar    1  UNL1        0.0443
     11 C         132.3267  141.3634  155.3672 C.ar    1  UNL1        0.1726
     12 H         135.8923  141.8783  151.2318 H       1  UNL1        0.1437
     13 H         134.4846  142.3986  152.0414 H       1  UNL1        0.1437
     14 N         137.9802  137.7699  153.8262 N.pl3   1  UNL1       -0.2747
     15 C         138.7237  137.3605  155.0630 C.3     1  UNL1        0.1151
     16 C         139.8933  136.4269  154.9605 C.3     1  UNL1        0.1153
     17 N         140.3194  135.9028  153.6212 N.am    1  UNL1       -0.2701
     18 C         141.4889  134.9692  153.5187 C.2     1  UNL1        0.2839
     19 O         141.9151  134.4450  152.1794 O.2     1  UNL1       -0.2666
     20 C         139.5759  136.3122  152.3844 C.3     1  UNL1        0.1153
     21 C         138.4063  137.2457  152.4869 C.3     1  UNL1        0.1151
     22 C         142.2324  134.5598  154.7555 C.ar    1  UNL1        0.1987
     23 C         141.9690  133.3327  155.5770 C.ar    1  UNL1        0.0455
     24 C         142.9437  133.3201  156.7171 C.ar    1  UNL1        0.0440
     25 C         143.8095  134.5394  156.6003 C.ar    1  UNL1        0.1798
     26 O         143.3699  135.3056  155.3879 O.2     1  UNL1       -0.4458
     27 C         130.4394  139.1392  157.4418 C.3     1  UNL1        0.2526
     28 O         131.5460  140.1483  157.5268 O.3     1  UNL1       -0.4683
     29 O         131.1571  142.2971  155.4697 O.3     1  UNL1       -0.4684
     30 C         130.0594  142.2389  154.4491 C.3     1  UNL1        0.2526
@<TRIPOS>BOND
     1    27    28    1
     2    28     1    1
     3     1     2   ar
     4     2     3   ar
     5     3     4   ar
     6     4     5   ar
     7     5    14    1
     8    14    15    1
     9    15    16    1
    10    16    17    1
    11    17    18   am
    12    18    19    2
    13    18    22    1
    14    22    23   ar
    15    23    24   ar
    16    24    25   ar
    17    25    26   ar
    18    17    20    1
    19    20    21    1
    20     5     6   ar
    21     6     7   ar
    22     7     8    1
    23     7     9   ar
    24     9    10   ar
    25    10    11   ar
    26    11    29    1
    27    29    30    1
    28    11     1   ar
    29     9     3   ar
    30    21    14    1
    31    26    22   ar
    32     8    12    1
    33     8    13    1
@<TRIPOS>MOLECULE
*****
 30 33 0 0 0
SMALL
GASTEIGER

@<TRIPOS>ATOM
      1 C         143.6052  132.4663  156.2243 C.ar    1  UNL1        0.1739
      2 C         143.8816  133.6948  157.0393 C.ar    1  UNL1        0.0593
      3 C         143.0358  134.9204  156.8592 C.ar    1  UNL1        0.0901
      4 N         143.3122  136.1489  157.6743 N.ar    1  UNL1       -0.2134
      5 C         142.4664  137.3745  157.4942 C.ar    1  UNL1        0.2214
      6 N         141.3441  137.3716  156.4989 N.ar    1  UNL1       -0.1991
      7 C         141.0677  136.1431  155.6838 C.ar    1  UNL1        0.1298
      8 N         139.9454  136.1403  154.6886 N.pl3   1  UNL1       -0.3425
      9 C         141.9135  134.9175  155.8640 C.ar    1  UNL1        0.0522
     10 C         141.6371  133.6890  155.0489 C.ar    1  UNL1        0.0443
     11 C         142.4829  132.4634  155.2291 C.ar    1  UNL1        0.1726
     12 H         139.3903  136.9447  154.5703 H       1  UNL1        0.1437
     13 H         139.7640  135.3340  154.1536 H       1  UNL1        0.1437
     14 N         142.7428  138.6030  158.3092 N.pl3   1  UNL1       -0.2747
     15 C         143.3369  138.4752  159.6806 C.3     1  UNL1        0.1151
     16 C         143.6133  139.7038  160.4957 C.3     1  UNL1        0.1153
     17 N         143.2957  141.0601  159.9393 N.am    1  UNL1       -0.2701
     18 C         143.5721  142.2886  160.7544 C.2     1  UNL1        0.2839
     19 O         143.2544  143.6449  160.1981 O.2     1  UNL1       -0.2666
     20 C         142.7016  141.1879  158.5679 C.3     1  UNL1        0.1153
     21 C         142.4252  139.9594  157.7529 C.3     1  UNL1        0.1151
     22 C         144.1661  142.1608  162.1258 C.ar    1  UNL1        0.1987
     23 C         143.4483  142.3917  163.4226 C.ar    1  UNL1        0.0455
     24 C         144.4209  142.1532  164.5395 C.ar    1  UNL1        0.0440
     25 C         145.7396  141.7750  163.9330 C.ar    1  UNL1        0.1798
     26 O         145.5822  141.7797  162.4413 O.2     1  UNL1       -0.4458
     27 C         144.4353  130.5040  157.7109 C.3     1  UNL1        0.2526
     28 O         144.4510  131.2407  156.4044 O.3     1  UNL1       -0.4683
     29 O         142.2065  131.2349  154.4139 O.3     1  UNL1       -0.4684
     30 C         141.0860  130.3153  154.7998 C.3     1  UNL1        0.2526
@<TRIPOS>BOND
     1    27    28    1
     2    28     1    1
     3     1     2   ar
     4     2     3   ar
     5     3     4   ar
     6     4     5   ar
     7     5    14    1
     8    14    15    1
     9    15    16    1
    10    16    17    1
    11    17    18   am
    12    18    19    2
    13    18    22    1
    14    22    23   ar
    15    23    24   ar
    16    24    25   ar
    17    25    26   ar
    18    17    20    1
    19    20    21    1
    20     5     6   ar
    21     6     7   ar
    22     7     8    1
    23     7     9   ar
    24     9    10   ar
    25    10    11   ar
    26    11    29    1
    27    29    30    1
    28    11     1   ar
    29     9     3   ar
    30    21    14    1
    31    26    22   ar
    32     8    12    1
    33     8    13    1
