@<TRIPOS>MOLECULE
*****
 38 41 0 0 0
SMALL
GASTEIGER

@<TRIPOS>ATOM
      1 C         142.2703  138.5550  158.5258 C.3     1  UNL1        0.0758
      2 C         142.9144  138.3573  159.8660 C.3     1  UNL1        0.0370
      3 C         143.5723  139.5131  160.5596 C.3     1  UNL1        0.0741
      4 N         143.5862  140.8666  159.9131 N.3     1  UNL1       -0.2688
      5 C         142.9420  141.0642  158.5729 C.3     1  UNL1        0.0741
      6 C         142.2841  139.9084  157.8793 C.3     1  UNL1        0.0370
      7 O         143.7866  136.9761  156.4744 O.2     1  UNL1       -0.2528
      8 C         142.3704  136.6097  156.8065 C.2     1  UNL1        0.3010
      9 N         141.6123  137.3991  157.8321 N.am    1  UNL1       -0.2905
     10 N         141.7124  135.4539  156.1128 N.am    1  UNL1       -0.2844
     11 H         140.6828  137.1586  158.0500 H       1  UNL1        0.1509
     12 H         140.7829  135.2134  156.3307 H       1  UNL1        0.1513
     13 CA        142.4706  134.6645  155.0871 C.3     1  UNL1        0.1248
     14 C         143.2588  133.4576  155.5019 C.ar    1  UNL1       -0.0020
     15 C         144.0286  133.4706  156.7893 C.ar    1  UNL1       -0.0026
     16 C         144.8168  132.2637  157.2040 C.ar    1  UNL1       -0.0003
     17 C         144.8352  131.0437  156.3314 C.ar    1  UNL1       -0.0000
     18 C         144.0654  131.0307  155.0441 C.ar    1  UNL1       -0.0003
     19 C         143.2772  132.2377  154.6293 C.ar    1  UNL1       -0.0026
     20 C         142.4405  135.0821  153.6467 C.3     1  UNL1        0.1612
     21 O         142.4456  136.5384  153.2877 O.3     1  UNL1       -0.3799
     22 H         141.6218  136.9496  153.5931 H       1  UNL1        0.2105
     23 C         144.2442  142.0224  160.6067 C.3     1  UNL1        0.1007
     24 C         144.2664  142.0837  162.1053 C.ar    1  UNL1        0.0129
     25 C         145.4892  142.0240  162.9721 C.ar    1  UNL1        0.0176
     26 C         145.0483  142.1189  164.4027 C.ar    1  UNL1        0.0799
     27 N         143.5531  142.2372  164.4201 N.ar    1  UNL1       -0.3038
     28 C         143.0699  142.2155  163.0002 C.ar    1  UNL1        0.0772
     29 C         142.6922  142.3564  165.6427 C.ar    1  UNL1        0.0640
     30 C         141.2350  142.6840  165.5049 C.ar    1  UNL1        0.0175
     31 C         140.3742  142.8032  166.7275 C.ar    1  UNL1        0.0053
     32 C         140.9706  142.5947  168.0879 C.ar    1  UNL1        0.0715
     33 C         142.4279  142.2671  168.2257 C.ar    1  UNL1        0.0053
     34 C         143.2887  142.1479  167.0031 C.ar    1  UNL1        0.0175
     35 C         140.1098  142.7139  169.3104 C.3     1  UNL1        0.4186
     36 F         139.2489  142.8329  170.5330 F       1  UNL1       -0.1659
     37 F         140.6523  144.0901  169.5583 F       1  UNL1       -0.1659
     38 F         139.5672  141.3375  169.0626 F       1  UNL1       -0.1659
@<TRIPOS>BOND
     1     7     8    2
     2     8     9   am
     3     9     1    1
     4     1     2    1
     5     2     3    1
     6     3     4    1
     7     4    23    1
     8    23    24    1
     9    24    25   ar
    10    25    26   ar
    11    26    27   ar
    12    27    29    1
    13    29    30   ar
    14    30    31   ar
    15    31    32   ar
    16    32    35    1
    17    35    36    1
    18    35    37    1
    19    35    38    1
    20    32    33   ar
    21    33    34   ar
    22    27    28   ar
    23     4     5    1
    24     5     6    1
    25     8    10   am
    26    10    13    1
    27    13    20    1
    28    20    21    1
    29    13    14    1
    30    14    15   ar
    31    15    16   ar
    32    16    17   ar
    33    17    18   ar
    34    18    19   ar
    35     6     1    1
    36    19    14   ar
    37    28    24   ar
    38    34    29   ar
    39     9    11    1
    40    10    12    1
    41    21    22    1
@<TRIPOS>MOLECULE
*****
 38 41 0 0 0
SMALL
GASTEIGER

@<TRIPOS>ATOM
      1 C         138.7567  141.8252  158.2463 C.3     1  UNL1        0.0758
      2 C         140.1488  141.8384  157.6880 C.3     1  UNL1        0.0370
      3 C         141.2790  141.2469  158.4771 C.3     1  UNL1        0.0741
      4 N         141.0170  140.6422  159.8246 N.3     1  UNL1       -0.2688
      5 C         139.6248  140.6290  160.3829 C.3     1  UNL1        0.0741
      6 C         138.4947  141.2205  159.5938 C.3     1  UNL1        0.0370
      7 O         137.0225  140.0571  156.5533 O.2     1  UNL1       -0.2528
      8 C         136.7594  141.5327  156.6106 C.2     1  UNL1        0.3010
      9 N         137.6265  142.4168  157.4571 N.am    1  UNL1       -0.2905
     10 N         135.6292  142.1242  155.8214 N.am    1  UNL1       -0.2844
     11 H         137.4538  143.3853  157.4947 H       1  UNL1        0.1509
     12 H         135.4565  143.0927  155.8591 H       1  UNL1        0.1513
     13 CA        134.7621  141.2402  154.9750 C.3     1  UNL1        0.1248
     14 C         133.5515  140.5848  155.5706 C.ar    1  UNL1       -0.0020
     15 C         133.6560  139.2082  156.1572 C.ar    1  UNL1       -0.0026
     16 C         132.4454  138.5528  156.7529 C.ar    1  UNL1       -0.0003
     17 C         131.1302  139.2740  156.7619 C.ar    1  UNL1       -0.0000
     18 C         131.0256  140.6505  156.1753 C.ar    1  UNL1       -0.0003
     19 C         132.2362  141.3060  155.5797 C.ar    1  UNL1       -0.0026
     20 C         135.1057  141.0115  153.5329 C.3     1  UNL1        0.1612
     21 O         134.2073  141.5410  152.4547 O.3     1  UNL1       -0.3799
     22 H         133.3526  141.0837  152.4925 H       1  UNL1        0.2105
     23 C         142.1472  140.0506  160.6138 C.3     1  UNL1        0.1007
     24 C         141.8799  139.4155  161.9461 C.ar    1  UNL1        0.0129
     25 C         141.6972  137.9490  162.2029 C.ar    1  UNL1        0.0176
     26 C         141.4527  137.7624  163.6710 C.ar    1  UNL1        0.0799
     27 N         141.4844  139.1137  164.3216 N.ar    1  UNL1       -0.3038
     28 C         141.7484  140.1353  163.2556 C.ar    1  UNL1        0.0772
     29 C         141.2867  139.3940  165.7819 C.ar    1  UNL1        0.0640
     30 C         142.4557  139.3430  166.7203 C.ar    1  UNL1        0.0175
     31 C         142.2580  139.6233  168.1806 C.ar    1  UNL1        0.0053
     32 C         140.8914  139.9547  168.7023 C.ar    1  UNL1        0.0715
     33 C         139.7223  140.0057  167.7639 C.ar    1  UNL1        0.0053
     34 C         139.9200  139.7254  166.3037 C.ar    1  UNL1        0.0175
     35 C         140.6937  140.2350  170.1626 C.3     1  UNL1        0.4186
     36 F         140.4961  140.5153  171.6229 F       1  UNL1       -0.1659
     37 F         139.2908  140.6879  169.8857 F       1  UNL1       -0.1659
     38 F         142.0967  139.7821  170.4395 F       1  UNL1       -0.1659
@<TRIPOS>BOND
     1     7     8    2
     2     8     9   am
     3     9     1    1
     4     1     2    1
     5     2     3    1
     6     3     4    1
     7     4    23    1
     8    23    24    1
     9    24    25   ar
    10    25    26   ar
    11    26    27   ar
    12    27    29    1
    13    29    30   ar
    14    30    31   ar
    15    31    32   ar
    16    32    35    1
    17    35    36    1
    18    35    37    1
    19    35    38    1
    20    32    33   ar
    21    33    34   ar
    22    27    28   ar
    23     4     5    1
    24     5     6    1
    25     8    10   am
    26    10    13    1
    27    13    20    1
    28    20    21    1
    29    13    14    1
    30    14    15   ar
    31    15    16   ar
    32    16    17   ar
    33    17    18   ar
    34    18    19   ar
    35     6     1    1
    36    19    14   ar
    37    28    24   ar
    38    34    29   ar
    39     9    11    1
    40    10    12    1
    41    21    22    1
@<TRIPOS>MOLECULE
*****
 38 41 0 0 0
SMALL
GASTEIGER

@<TRIPOS>ATOM
      1 C         138.6092  142.7515  157.9321 C.3     1  UNL1        0.0758
      2 C         138.5021  142.5086  159.4084 C.3     1  UNL1        0.0370
      3 C         139.7436  142.4126  160.2446 C.3     1  UNL1        0.0741
      4 N         141.0922  142.5595  159.6046 N.3     1  UNL1       -0.2688
      5 C         141.1993  142.8024  158.1283 C.3     1  UNL1        0.0741
      6 C         139.9578  142.8984  157.2920 C.3     1  UNL1        0.0370
      7 O         137.2300  140.2549  157.0022 O.2     1  UNL1       -0.2528
      8 C         136.6781  141.5993  156.6308 C.2     1  UNL1        0.3010
      9 N         137.3676  142.8476  157.0957 N.am    1  UNL1       -0.2905
     10 N         135.4365  141.6953  155.7945 N.am    1  UNL1       -0.2844
     11 H         137.0053  143.7300  156.8520 H       1  UNL1        0.1509
     12 H         135.0742  142.5777  155.5507 H       1  UNL1        0.1513
     13 CA        134.7470  140.4470  155.3295 C.3     1  UNL1        0.1248
     14 C         133.3735  140.1167  155.8338 C.ar    1  UNL1       -0.0020
     15 C         132.2404  141.0726  155.6048 C.ar    1  UNL1       -0.0026
     16 C         130.8669  140.7423  156.1091 C.ar    1  UNL1       -0.0003
     17 C         130.6264  139.4561  156.8425 C.ar    1  UNL1       -0.0000
     18 C         131.7594  138.5002  157.0715 C.ar    1  UNL1       -0.0003
     19 C         133.1330  138.8305  156.5672 C.ar    1  UNL1       -0.0026
     20 C         135.4310  139.5290  154.3603 C.3     1  UNL1        0.1612
     21 O         136.3635  138.4672  154.8633 O.3     1  UNL1       -0.3799
     22 H         137.1403  138.8843  155.2676 H       1  UNL1        0.2105
     23 C         142.3338  142.4634  160.4409 C.3     1  UNL1        0.1007
     24 C         142.3432  143.0157  161.8354 C.ar    1  UNL1        0.0129
     25 C         142.5768  144.4480  162.2149 C.ar    1  UNL1        0.0176
     26 C         142.4987  144.5503  163.7094 C.ar    1  UNL1        0.0799
     27 N         142.2169  143.1811  164.2536 N.ar    1  UNL1       -0.3038
     28 C         142.1209  142.2327  163.0954 C.ar    1  UNL1        0.0772
     29 C         142.0590  142.8232  165.7017 C.ar    1  UNL1        0.0640
     30 C         143.2617  142.4546  166.5186 C.ar    1  UNL1        0.0175
     31 C         143.1037  142.0967  167.9667 C.ar    1  UNL1        0.0053
     32 C         141.7431  142.1074  168.5978 C.ar    1  UNL1        0.0715
     33 C         140.5403  142.4760  167.7809 C.ar    1  UNL1        0.0053
     34 C         140.6982  142.8339  166.3328 C.ar    1  UNL1        0.0175
     35 C         141.5852  141.7495  170.0459 C.3     1  UNL1        0.4186
     36 F         141.4271  141.3917  171.4940 F       1  UNL1       -0.1659
     37 F         143.0332  141.3632  170.1083 F       1  UNL1       -0.1659
     38 F         140.1370  142.1358  169.9834 F       1  UNL1       -0.1659
@<TRIPOS>BOND
     1     7     8    2
     2     8     9   am
     3     9     1    1
     4     1     2    1
     5     2     3    1
     6     3     4    1
     7     4    23    1
     8    23    24    1
     9    24    25   ar
    10    25    26   ar
    11    26    27   ar
    12    27    29    1
    13    29    30   ar
    14    30    31   ar
    15    31    32   ar
    16    32    35    1
    17    35    36    1
    18    35    37    1
    19    35    38    1
    20    32    33   ar
    21    33    34   ar
    22    27    28   ar
    23     4     5    1
    24     5     6    1
    25     8    10   am
    26    10    13    1
    27    13    20    1
    28    20    21    1
    29    13    14    1
    30    14    15   ar
    31    15    16   ar
    32    16    17   ar
    33    17    18   ar
    34    18    19   ar
    35     6     1    1
    36    19    14   ar
    37    28    24   ar
    38    34    29   ar
    39     9    11    1
    40    10    12    1
    41    21    22    1
@<TRIPOS>MOLECULE
*****
 38 41 0 0 0
SMALL
GASTEIGER

@<TRIPOS>ATOM
      1 C         138.5416  140.0211  159.0905 C.3     1  UNL1        0.0758
      2 C         138.0073  139.4020  160.3479 C.3     1  UNL1        0.0370
      3 C         137.6886  140.2655  161.5323 C.3     1  UNL1        0.0741
      4 N         137.9044  141.7481  161.4593 N.3     1  UNL1       -0.2688
      5 C         138.4387  142.3672  160.2019 C.3     1  UNL1        0.0741
      6 C         138.7573  141.5037  159.0175 C.3     1  UNL1        0.0370
      7 O         141.3214  138.9575  158.7139 O.2     1  UNL1       -0.2528
      8 C         140.2501  138.6258  157.7178 C.2     1  UNL1        0.3010
      9 N         138.8602  139.1576  157.9060 N.am    1  UNL1       -0.2905
     10 N         140.5687  137.7623  156.5333 N.am    1  UNL1       -0.2844
     11 H         138.1571  138.9399  157.2522 H       1  UNL1        0.1509
     12 H         139.8656  137.5446  155.8795 H       1  UNL1        0.1513
     13 CA        141.9586  137.2306  156.3450 C.3     1  UNL1        0.1248
     14 C         142.2086  135.7523  156.3912 C.ar    1  UNL1       -0.0020
     15 C         143.2010  135.1896  157.3652 C.ar    1  UNL1       -0.0026
     16 C         143.4510  133.7113  157.4114 C.ar    1  UNL1       -0.0003
     17 C         142.7087  132.7957  156.4837 C.ar    1  UNL1       -0.0000
     18 C         141.7164  133.3584  155.5097 C.ar    1  UNL1       -0.0003
     19 C         141.4663  134.8367  155.4635 C.ar    1  UNL1       -0.0026
     20 C         143.0984  138.1771  156.1106 C.3     1  UNL1        0.1612
     21 O         143.7660  138.8497  157.2732 O.3     1  UNL1       -0.3799
     22 H         143.1390  139.4535  157.7011 H       1  UNL1        0.2105
     23 C         137.5857  142.6116  162.6438 C.3     1  UNL1        0.1007
     24 C         138.6180  142.8341  163.7091 C.ar    1  UNL1        0.0129
     25 C         139.3926  144.0984  163.9358 C.ar    1  UNL1        0.0176
     26 C         140.3102  143.8770  165.1015 C.ar    1  UNL1        0.0799
     27 N         140.1027  142.4759  165.5953 N.ar    1  UNL1       -0.3038
     28 C         139.0568  141.8313  164.7347 C.ar    1  UNL1        0.0772
     29 C         140.8158  141.8324  166.7474 C.ar    1  UNL1        0.0640
     30 C         140.2615  140.5857  167.3706 C.ar    1  UNL1        0.0175
     31 C         140.9746  139.9421  168.5227 C.ar    1  UNL1        0.0053
     32 C         142.2420  140.5453  169.0516 C.ar    1  UNL1        0.0715
     33 C         142.7963  141.7921  168.4285 C.ar    1  UNL1        0.0053
     34 C         142.0832  142.4356  167.2764 C.ar    1  UNL1        0.0175
     35 C         142.9551  139.9018  170.2037 C.3     1  UNL1        0.4186
     36 F         143.6682  139.2582  171.3558 F       1  UNL1       -0.1659
     37 F         143.8725  141.0849  170.2967 F       1  UNL1       -0.1659
     38 F         142.0377  138.7186  170.1107 F       1  UNL1       -0.1659
@<TRIPOS>BOND
     1     7     8    2
     2     8     9   am
     3     9     1    1
     4     1     2    1
     5     2     3    1
     6     3     4    1
     7     4    23    1
     8    23    24    1
     9    24    25   ar
    10    25    26   ar
    11    26    27   ar
    12    27    29    1
    13    29    30   ar
    14    30    31   ar
    15    31    32   ar
    16    32    35    1
    17    35    36    1
    18    35    37    1
    19    35    38    1
    20    32    33   ar
    21    33    34   ar
    22    27    28   ar
    23     4     5    1
    24     5     6    1
    25     8    10   am
    26    10    13    1
    27    13    20    1
    28    20    21    1
    29    13    14    1
    30    14    15   ar
    31    15    16   ar
    32    16    17   ar
    33    17    18   ar
    34    18    19   ar
    35     6     1    1
    36    19    14   ar
    37    28    24   ar
    38    34    29   ar
    39     9    11    1
    40    10    12    1
    41    21    22    1
@<TRIPOS>MOLECULE
*****
 38 41 0 0 0
SMALL
GASTEIGER

@<TRIPOS>ATOM
      1 C         143.5708  140.3388  158.2937 C.3     1  UNL1        0.0758
      2 C         143.7542  139.9779  159.7380 C.3     1  UNL1        0.0370
      3 C         143.5539  141.0162  160.8017 C.3     1  UNL1        0.0741
      4 N         143.1702  142.4155  160.4212 N.3     1  UNL1       -0.2688
      5 C         142.9869  142.7764  158.9769 C.3     1  UNL1        0.0741
      6 C         143.1872  141.7381  157.9131 C.3     1  UNL1        0.0370
      7 O         141.5473  138.1540  157.9300 O.2     1  UNL1       -0.2528
      8 C         142.7594  138.2081  157.0480 C.2     1  UNL1        0.3010
      9 N         143.7711  139.3004  157.2298 N.am    1  UNL1       -0.2905
     10 N         142.9597  137.1697  155.9842 N.am    1  UNL1       -0.2844
     11 H         144.5667  139.3358  156.6509 H       1  UNL1        0.1509
     12 H         143.7552  137.2051  155.4053 H       1  UNL1        0.1513
     13 CA        141.9479  136.0773  155.8024 C.3     1  UNL1        0.1248
     14 C         142.3159  134.6558  156.1084 C.ar    1  UNL1       -0.0020
     15 C         143.4066  134.3590  157.0946 C.ar    1  UNL1       -0.0026
     16 C         143.7745  132.9374  157.4007 C.ar    1  UNL1       -0.0003
     17 C         143.0518  131.8126  156.7207 C.ar    1  UNL1       -0.0000
     18 C         141.9612  132.1093  155.7346 C.ar    1  UNL1       -0.0003
     19 C         141.5932  133.5309  155.4284 C.ar    1  UNL1       -0.0026
     20 C         140.5682  136.4066  155.3145 C.3     1  UNL1        0.1612
     21 O         139.4358  136.5250  156.2909 O.3     1  UNL1       -0.3799
     22 H         139.2635  135.6592  156.6929 H       1  UNL1        0.2105
     23 C         142.9699  143.4539  161.4850 C.3     1  UNL1        0.1007
     24 C         143.1913  143.1032  162.9265 C.ar    1  UNL1        0.0129
     25 C         144.4665  143.2912  163.6938 C.ar    1  UNL1        0.0176
     26 C         144.2398  142.8072  165.0953 C.ar    1  UNL1        0.0799
     27 N         142.8245  142.3200  165.1943 N.ar    1  UNL1       -0.3038
     28 C         142.1765  142.5030  163.8539 C.ar    1  UNL1        0.0772
     29 C         142.1718  141.7500  166.4186 C.ar    1  UNL1        0.0640
     30 C         142.6633  140.4564  166.9972 C.ar    1  UNL1        0.0175
     31 C         142.0106  139.8864  168.2216 C.ar    1  UNL1        0.0053
     32 C         140.8664  140.6100  168.8673 C.ar    1  UNL1        0.0715
     33 C         140.3748  141.9036  168.2887 C.ar    1  UNL1        0.0053
     34 C         141.0275  142.4737  167.0644 C.ar    1  UNL1        0.0175
     35 C         140.2137  140.0400  170.0916 C.3     1  UNL1        0.4186
     36 F         139.5609  139.4700  171.3160 F       1  UNL1       -0.1659
     37 F         141.3416  139.0619  170.2376 F       1  UNL1       -0.1659
     38 F         139.0857  141.0181  169.9458 F       1  UNL1       -0.1659
@<TRIPOS>BOND
     1     7     8    2
     2     8     9   am
     3     9     1    1
     4     1     2    1
     5     2     3    1
     6     3     4    1
     7     4    23    1
     8    23    24    1
     9    24    25   ar
    10    25    26   ar
    11    26    27   ar
    12    27    29    1
    13    29    30   ar
    14    30    31   ar
    15    31    32   ar
    16    32    35    1
    17    35    36    1
    18    35    37    1
    19    35    38    1
    20    32    33   ar
    21    33    34   ar
    22    27    28   ar
    23     4     5    1
    24     5     6    1
    25     8    10   am
    26    10    13    1
    27    13    20    1
    28    20    21    1
    29    13    14    1
    30    14    15   ar
    31    15    16   ar
    32    16    17   ar
    33    17    18   ar
    34    18    19   ar
    35     6     1    1
    36    19    14   ar
    37    28    24   ar
    38    34    29   ar
    39     9    11    1
    40    10    12    1
    41    21    22    1
@<TRIPOS>MOLECULE
*****
 38 41 0 0 0
SMALL
GASTEIGER

@<TRIPOS>ATOM
      1 C         139.7240  138.6126  157.8951 C.3     1  UNL1        0.0758
      2 C         140.5883  138.6618  159.1200 C.3     1  UNL1        0.0370
      3 C         140.6978  139.9321  159.9101 C.3     1  UNL1        0.0741
      4 N         139.9429  141.1532  159.4753 N.3     1  UNL1       -0.2688
      5 C         139.0785  141.1040  158.2504 C.3     1  UNL1        0.0741
      6 C         138.9691  139.8337  157.4603 C.3     1  UNL1        0.0370
      7 O         142.0792  137.6124  156.3290 O.2     1  UNL1       -0.2528
      8 C         140.7921  136.8422  156.3219 C.2     1  UNL1        0.3010
      9 N         139.6145  137.3423  157.1049 N.am    1  UNL1       -0.2905
     10 N         140.6826  135.5719  155.5317 N.am    1  UNL1       -0.2844
     11 H         138.7697  136.8367  157.1002 H       1  UNL1        0.1509
     12 H         139.8378  135.0663  155.5270 H       1  UNL1        0.1513
     13 CA        141.8602  135.0718  154.7487 C.3     1  UNL1        0.1248
     14 C         142.7416  134.0016  155.3211 C.ar    1  UNL1       -0.0020
     15 C         142.9744  132.7327  154.5556 C.ar    1  UNL1       -0.0026
     16 C         143.8559  131.6625  155.1281 C.ar    1  UNL1       -0.0003
     17 C         144.5045  131.8611  156.4659 C.ar    1  UNL1       -0.0000
     18 C         144.2717  133.1299  157.2313 C.ar    1  UNL1       -0.0003
     19 C         143.3902  134.2002  156.6589 C.ar    1  UNL1       -0.0026
     20 C         142.1563  135.6420  153.3932 C.3     1  UNL1        0.1612
     21 O         142.6135  137.0645  153.2615 O.3     1  UNL1       -0.3799
     22 H         141.8990  137.6604  153.5357 H       1  UNL1        0.2105
     23 C         140.0524  142.4236  160.2655 C.3     1  UNL1        0.1007
     24 C         139.5169  142.4846  161.6653 C.ar    1  UNL1        0.0129
     25 C         138.3330  143.2843  162.1222 C.ar    1  UNL1        0.0176
     26 C         138.1557  143.0506  163.5933 C.ar    1  UNL1        0.0799
     27 N         139.2301  142.1065  164.0455 N.ar    1  UNL1       -0.3038
     28 C         140.0713  141.7567  162.8539 C.ar    1  UNL1        0.0772
     29 C         139.4283  141.6011  165.4437 C.ar    1  UNL1        0.0640
     30 C         138.8687  140.2688  165.8460 C.ar    1  UNL1        0.0175
     31 C         139.0670  139.7633  167.2443 C.ar    1  UNL1        0.0053
     32 C         139.8248  140.5901  168.2403 C.ar    1  UNL1        0.0715
     33 C         140.3845  141.9224  167.8380 C.ar    1  UNL1        0.0053
     34 C         140.1862  142.4279  166.4398 C.ar    1  UNL1        0.0175
     35 C         140.0231  140.0846  169.6385 C.3     1  UNL1        0.4186
     36 F         140.2213  139.5791  171.0368 F       1  UNL1       -0.1659
     37 F         141.3449  139.4987  169.2393 F       1  UNL1       -0.1659
     38 F         138.7012  140.6705  170.0378 F       1  UNL1       -0.1659
@<TRIPOS>BOND
     1     7     8    2
     2     8     9   am
     3     9     1    1
     4     1     2    1
     5     2     3    1
     6     3     4    1
     7     4    23    1
     8    23    24    1
     9    24    25   ar
    10    25    26   ar
    11    26    27   ar
    12    27    29    1
    13    29    30   ar
    14    30    31   ar
    15    31    32   ar
    16    32    35    1
    17    35    36    1
    18    35    37    1
    19    35    38    1
    20    32    33   ar
    21    33    34   ar
    22    27    28   ar
    23     4     5    1
    24     5     6    1
    25     8    10   am
    26    10    13    1
    27    13    20    1
    28    20    21    1
    29    13    14    1
    30    14    15   ar
    31    15    16   ar
    32    16    17   ar
    33    17    18   ar
    34    18    19   ar
    35     6     1    1
    36    19    14   ar
    37    28    24   ar
    38    34    29   ar
    39     9    11    1
    40    10    12    1
    41    21    22    1
@<TRIPOS>MOLECULE
*****
 38 41 0 0 0
SMALL
GASTEIGER

@<TRIPOS>ATOM
      1 C         139.1097  140.1536  161.0841 C.3     1  UNL1        0.0758
      2 C         138.8502  138.9103  160.2860 C.3     1  UNL1        0.0370
      3 C         139.6394  138.6412  159.0391 C.3     1  UNL1        0.0741
      4 N         140.6880  139.6154  158.5903 N.3     1  UNL1       -0.2688
      5 C         140.9475  140.8586  159.3884 C.3     1  UNL1        0.0741
      6 C         140.1583  141.1277  160.6353 C.3     1  UNL1        0.0370
      7 O         139.9578  138.9313  163.6892 O.2     1  UNL1       -0.2528
      8 C         138.7446  139.8116  163.6336 C.2     1  UNL1        0.3010
      9 N         138.3205  140.4228  162.3310 N.am    1  UNL1       -0.2905
     10 N         137.9554  140.0808  164.8805 N.am    1  UNL1       -0.2844
     11 H         137.5242  141.0005  162.2945 H       1  UNL1        0.1509
     12 H         137.1591  140.6586  164.8440 H       1  UNL1        0.1513
     13 CA        138.3794  139.4696  166.1831 C.3     1  UNL1        0.1248
     14 C         139.1954  140.2683  167.1558 C.ar    1  UNL1       -0.0020
     15 C         140.0221  141.4225  166.6712 C.ar    1  UNL1       -0.0026
     16 C         140.8381  142.2211  167.6439 C.ar    1  UNL1       -0.0003
     17 C         140.8275  141.8658  169.1012 C.ar    1  UNL1       -0.0000
     18 C         140.0009  140.7117  169.5857 C.ar    1  UNL1       -0.0003
     19 C         139.1848  139.9130  168.6130 C.ar    1  UNL1       -0.0026
     20 C         137.9875  138.0598  166.5129 C.3     1  UNL1        0.1612
     21 O         136.7504  137.7942  167.3184 O.3     1  UNL1       -0.3799
     22 H         136.8673  138.1443  168.2154 H       1  UNL1        0.2105
     23 C         141.4772  139.3462  157.3434 C.3     1  UNL1        0.1007
     24 C         141.5058  137.9658  156.7573 C.ar    1  UNL1        0.0129
     25 C         140.7060  137.4908  155.5805 C.ar    1  UNL1        0.0176
     26 C         141.0451  136.0494  155.3409 C.ar    1  UNL1        0.0799
     27 N         142.0546  135.6335  156.3696 N.ar    1  UNL1       -0.3038
     28 C         142.3393  136.8179  157.2449 C.ar    1  UNL1        0.0772
     29 C         142.6711  134.2723  156.5000 C.ar    1  UNL1        0.0640
     30 C         142.0979  133.1134  155.7396 C.ar    1  UNL1        0.0175
     31 C         142.7143  131.7522  155.8700 C.ar    1  UNL1        0.0053
     32 C         143.9040  131.5499  156.7608 C.ar    1  UNL1        0.0715
     33 C         144.4773  132.7088  157.5213 C.ar    1  UNL1        0.0053
     34 C         143.8608  134.0700  157.3909 C.ar    1  UNL1        0.0175
     35 C         144.5205  130.1887  156.8912 C.3     1  UNL1        0.4186
     36 F         145.1370  128.8274  157.0216 F       1  UNL1       -0.1659
     37 F         143.9490  130.0622  158.2723 F       1  UNL1       -0.1659
     38 F         145.0920  130.3152  155.5101 F       1  UNL1       -0.1659
@<TRIPOS>BOND
     1     7     8    2
     2     8     9   am
     3     9     1    1
     4     1     2    1
     5     2     3    1
     6     3     4    1
     7     4    23    1
     8    23    24    1
     9    24    25   ar
    10    25    26   ar
    11    26    27   ar
    12    27    29    1
    13    29    30   ar
    14    30    31   ar
    15    31    32   ar
    16    32    35    1
    17    35    36    1
    18    35    37    1
    19    35    38    1
    20    32    33   ar
    21    33    34   ar
    22    27    28   ar
    23     4     5    1
    24     5     6    1
    25     8    10   am
    26    10    13    1
    27    13    20    1
    28    20    21    1
    29    13    14    1
    30    14    15   ar
    31    15    16   ar
    32    16    17   ar
    33    17    18   ar
    34    18    19   ar
    35     6     1    1
    36    19    14   ar
    37    28    24   ar
    38    34    29   ar
    39     9    11    1
    40    10    12    1
    41    21    22    1
@<TRIPOS>MOLECULE
*****
 38 41 0 0 0
SMALL
GASTEIGER

@<TRIPOS>ATOM
      1 C         141.8652  136.4240  156.4558 C.3     1  UNL1        0.0758
      2 C         140.4916  137.0264  156.4733 C.3     1  UNL1        0.0370
      3 C         140.1399  138.0619  157.5000 C.3     1  UNL1        0.0741
      4 N         141.1618  138.4950  158.5090 N.3     1  UNL1       -0.2688
      5 C         142.5354  137.8927  158.4914 C.3     1  UNL1        0.0741
      6 C         142.8871  136.8572  157.4648 C.3     1  UNL1        0.0370
      7 O         142.5781  133.6400  157.3165 O.2     1  UNL1       -0.2528
      8 C         142.5734  133.9965  155.8594 C.2     1  UNL1        0.3010
      9 N         142.2170  135.3885  155.4291 N.am    1  UNL1       -0.2905
     10 N         142.9252  132.9609  154.8328 N.am    1  UNL1       -0.2844
     11 H         142.2139  135.6225  154.4728 H       1  UNL1        0.1509
     12 H         142.9221  133.1949  153.8765 H       1  UNL1        0.1513
     13 CA        143.2817  131.5690  155.2631 C.3     1  UNL1        0.1248
     14 C         142.2454  130.4850  155.2292 C.ar    1  UNL1       -0.0020
     15 C         142.6141  129.0827  155.6137 C.ar    1  UNL1       -0.0026
     16 C         141.5778  127.9987  155.5797 C.ar    1  UNL1       -0.0003
     17 C         140.1730  128.3170  155.1613 C.ar    1  UNL1       -0.0000
     18 C         139.8043  129.7192  154.7768 C.ar    1  UNL1       -0.0003
     19 C         140.8406  130.8032  154.8108 C.ar    1  UNL1       -0.0026
     20 C         144.6743  131.2609  155.7274 C.3     1  UNL1        0.1612
     21 O         145.5091  132.3352  156.3592 O.3     1  UNL1       -0.3799
     22 H         145.7052  133.0209  155.7017 H       1  UNL1        0.2105
     23 C         140.8100  139.5306  159.5357 C.3     1  UNL1        0.1007
     24 C         140.3003  139.1091  160.8820 C.ar    1  UNL1        0.0129
     25 C         139.3048  138.0186  161.1460 C.ar    1  UNL1        0.0176
     26 C         139.0859  137.9396  162.6278 C.ar    1  UNL1        0.0799
     27 N         139.9462  138.9813  163.2797 N.ar    1  UNL1       -0.3038
     28 C         140.6968  139.7041  162.2006 C.ar    1  UNL1        0.0772
     29 C         140.0395  139.2526  164.7520 C.ar    1  UNL1        0.0640
     30 C         138.8171  139.1417  165.6140 C.ar    1  UNL1        0.0175
     31 C         138.9104  139.4129  167.0863 C.ar    1  UNL1        0.0053
     32 C         140.2262  139.7952  167.6966 C.ar    1  UNL1        0.0715
     33 C         141.4487  139.9061  166.8345 C.ar    1  UNL1        0.0053
     34 C         141.3554  139.6348  165.3622 C.ar    1  UNL1        0.0175
     35 C         140.3195  140.0664  169.1688 C.3     1  UNL1        0.4186
     36 F         140.4130  140.3377  170.6412 F       1  UNL1       -0.1659
     37 F         139.0120  140.7996  169.1167 F       1  UNL1       -0.1659
     38 F         141.6272  139.3332  169.2211 F       1  UNL1       -0.1659
@<TRIPOS>BOND
     1     7     8    2
     2     8     9   am
     3     9     1    1
     4     1     2    1
     5     2     3    1
     6     3     4    1
     7     4    23    1
     8    23    24    1
     9    24    25   ar
    10    25    26   ar
    11    26    27   ar
    12    27    29    1
    13    29    30   ar
    14    30    31   ar
    15    31    32   ar
    16    32    35    1
    17    35    36    1
    18    35    37    1
    19    35    38    1
    20    32    33   ar
    21    33    34   ar
    22    27    28   ar
    23     4     5    1
    24     5     6    1
    25     8    10   am
    26    10    13    1
    27    13    20    1
    28    20    21    1
    29    13    14    1
    30    14    15   ar
    31    15    16   ar
    32    16    17   ar
    33    17    18   ar
    34    18    19   ar
    35     6     1    1
    36    19    14   ar
    37    28    24   ar
    38    34    29   ar
    39     9    11    1
    40    10    12    1
    41    21    22    1
@<TRIPOS>MOLECULE
*****
 38 41 0 0 0
SMALL
GASTEIGER

@<TRIPOS>ATOM
      1 C         139.6300  138.8073  158.1251 C.3     1  UNL1        0.0758
      2 C         139.2326  140.1237  157.5261 C.3     1  UNL1        0.0370
      3 C         139.2928  141.3731  158.3539 C.3     1  UNL1        0.0741
      4 N         139.7504  141.3061  159.7808 N.3     1  UNL1       -0.2688
      5 C         140.1478  139.9896  160.3799 C.3     1  UNL1        0.0741
      6 C         140.0877  138.7402  159.5521 C.3     1  UNL1        0.0370
      7 O         142.0845  137.8300  156.7036 O.2     1  UNL1       -0.2528
      8 C         140.7971  137.0692  156.5866 C.2     1  UNL1        0.3010
      9 N         139.5699  137.5578  157.2973 N.am    1  UNL1       -0.2905
     10 N         140.7370  135.8197  155.7588 N.am    1  UNL1       -0.2844
     11 H         138.7249  137.0584  157.2205 H       1  UNL1        0.1509
     12 H         139.8920  135.3203  155.6819 H       1  UNL1        0.1513
     13 CA        141.9642  135.3311  155.0480 C.3     1  UNL1        0.1248
     14 C         142.8112  134.2582  155.6655 C.ar    1  UNL1       -0.0020
     15 C         143.3716  134.4454  157.0443 C.ar    1  UNL1       -0.0026
     16 C         144.2186  133.3725  157.6617 C.ar    1  UNL1       -0.0003
     17 C         144.5053  132.1122  156.9004 C.ar    1  UNL1       -0.0000
     18 C         143.9450  131.9249  155.5217 C.ar    1  UNL1       -0.0003
     19 C         143.0979  132.9979  154.9042 C.ar    1  UNL1       -0.0026
     20 C         142.3443  135.9155  153.7199 C.3     1  UNL1        0.1612
     21 O         142.7990  137.3421  153.6307 O.3     1  UNL1       -0.3799
     22 H         142.0638  137.9308  153.8626 H       1  UNL1        0.2105
     23 C         139.8105  142.5556  160.6086 C.3     1  UNL1        0.1007
     24 C         140.7419  142.6339  161.7817 C.ar    1  UNL1        0.0129
     25 C         142.2203  142.8795  161.7188 C.ar    1  UNL1        0.0176
     26 C         142.7506  142.8778  163.1220 C.ar    1  UNL1        0.0799
     27 N         141.5999  142.6310  164.0521 N.ar    1  UNL1       -0.3038
     28 C         140.3585  142.4803  163.2238 C.ar    1  UNL1        0.0772
     29 C         141.6771  142.5494  165.5479 C.ar    1  UNL1        0.0640
     30 C         140.4349  142.7104  166.3729 C.ar    1  UNL1        0.0175
     31 C         140.5121  142.6287  167.8687 C.ar    1  UNL1        0.0053
     32 C         141.8316  142.3860  168.5394 C.ar    1  UNL1        0.0715
     33 C         143.0739  142.2249  167.7144 C.ar    1  UNL1        0.0053
     34 C         142.9967  142.3066  166.2186 C.ar    1  UNL1        0.0175
     35 C         141.9088  142.3043  170.0352 C.3     1  UNL1        0.4186
     36 F         141.9861  142.2227  171.5310 F       1  UNL1       -0.1659
     37 F         140.7090  141.4041  170.0480 F       1  UNL1       -0.1659
     38 F         143.1086  143.2046  170.0224 F       1  UNL1       -0.1659
@<TRIPOS>BOND
     1     7     8    2
     2     8     9   am
     3     9     1    1
     4     1     2    1
     5     2     3    1
     6     3     4    1
     7     4    23    1
     8    23    24    1
     9    24    25   ar
    10    25    26   ar
    11    26    27   ar
    12    27    29    1
    13    29    30   ar
    14    30    31   ar
    15    31    32   ar
    16    32    35    1
    17    35    36    1
    18    35    37    1
    19    35    38    1
    20    32    33   ar
    21    33    34   ar
    22    27    28   ar
    23     4     5    1
    24     5     6    1
    25     8    10   am
    26    10    13    1
    27    13    20    1
    28    20    21    1
    29    13    14    1
    30    14    15   ar
    31    15    16   ar
    32    16    17   ar
    33    17    18   ar
    34    18    19   ar
    35     6     1    1
    36    19    14   ar
    37    28    24   ar
    38    34    29   ar
    39     9    11    1
    40    10    12    1
    41    21    22    1
