@<TRIPOS>MOLECULE
*****
 27 29 0 0 0
SMALL
GASTEIGER

@<TRIPOS>ATOM
      1 C         140.2891  139.6208  167.0437 C.ar    1  UNL1       -0.0069
      2 C         138.8144  139.3714  166.9300 C.ar    1  UNL1        0.0002
      3 C         138.2581  138.7088  165.7046 C.ar    1  UNL1        0.0366
      4 C         139.1765  138.2956  164.5930 C.ar    1  UNL1        0.1390
      5 C         140.6513  138.5450  164.7067 C.ar    1  UNL1        0.0366
      6 C         141.2076  139.2076  165.9321 C.ar    1  UNL1        0.0002
      7 C         140.7480  142.1800  170.0421 C.3     1  UNL1        0.1423
      8 C         141.9580  141.6086  170.7198 C.3     1  UNL1        0.0826
      9 S         142.6118  140.3746  170.1721 S.3     1  UNL1       -0.1366
     10 C         142.0555  139.7120  168.9468 C.3     1  UNL1        0.0778
     11 C         140.8455  140.2834  168.2691 C.3     1  UNL1        0.0881
     12 N         140.1917  141.5174  168.8168 N.3     1  UNL1       -0.2875
     13 H         139.2255  141.2691  169.0292 H       1  UNL1        0.1239
     14 N         138.8653  143.2965  171.4417 N.am    1  UNL1       -0.3277
     15 C         140.0943  143.4139  170.5897 C.2     1  UNL1        0.2345
     16 O         140.6694  144.7654  170.2854 O.2     1  UNL1       -0.2739
     17 H         138.4363  144.1064  171.8011 H       1  UNL1        0.1450
     18 H         138.4878  142.4094  171.6414 H       1  UNL1        0.1450
     19 O         138.6202  137.6330  163.3676 O.3     1  UNL1       -0.4706
     20 C         138.1924  138.4641  162.1945 C.3     1  UNL1        0.2321
     21 C         138.5894  139.9084  162.1138 C.ar    1  UNL1        0.0234
     22 C         139.8890  140.2943  161.4720 C.ar    1  UNL1       -0.0005
     23 C         140.2859  141.7385  161.3914 C.ar    1  UNL1        0.0021
     24 C         139.3832  142.7969  161.9526 C.ar    1  UNL1        0.0296
     25 C         138.0835  142.4110  162.5944 C.ar    1  UNL1        0.1399
     26 F         137.1808  143.4694  163.1556 F       1  UNL1       -0.2042
     27 C         137.6866  140.9667  162.6750 C.ar    1  UNL1        0.0289
@<TRIPOS>BOND
     1    14    15   am
     2    15    16    2
     3     7    15    1
     4     7     8    1
     5     8     9    1
     6     9    10    1
     7    10    11    1
     8    11     1    1
     9     1     2   ar
    10     2     3   ar
    11     3     4   ar
    12     4    19    1
    13    19    20    1
    14    20    21    1
    15    21    22   ar
    16    22    23   ar
    17    23    24   ar
    18    24    25   ar
    19    25    26    1
    20    25    27   ar
    21     4     5   ar
    22     5     6   ar
    23    11    12    1
    24    12     7    1
    25     6     1   ar
    26    27    21   ar
    27    14    17    1
    28    14    18    1
    29    12    13    1
@<TRIPOS>MOLECULE
*****
 27 29 0 0 0
SMALL
GASTEIGER

@<TRIPOS>ATOM
      1 C         140.4997  140.1189  166.8110 C.ar    1  UNL1       -0.0069
      2 C         141.2041  140.2446  165.4927 C.ar    1  UNL1        0.0002
      3 C         140.4634  139.9705  164.2174 C.ar    1  UNL1        0.0366
      4 C         139.0182  139.5708  164.2605 C.ar    1  UNL1        0.1390
      5 C         138.3139  139.4451  165.5789 C.ar    1  UNL1        0.0366
      6 C         139.0546  139.7192  166.8541 C.ar    1  UNL1        0.0002
      7 C         142.0467  142.0635  169.9054 C.3     1  UNL1        0.1423
      8 C         142.7217  140.9413  170.6367 C.3     1  UNL1        0.0826
      9 S         142.6561  139.5449  170.0928 S.3     1  UNL1       -0.1366
     10 C         141.9155  139.2708  168.8176 C.3     1  UNL1        0.0778
     11 C         141.2404  140.3930  168.0863 C.3     1  UNL1        0.0881
     12 N         141.3060  141.7894  168.6302 N.3     1  UNL1       -0.2875
     13 H         140.3436  142.0936  168.7774 H       1  UNL1        0.1239
     14 N         143.3528  143.9361  171.1453 N.am    1  UNL1       -0.3277
     15 C         142.1123  143.4599  170.4493 C.2     1  UNL1        0.2345
     16 O         140.9375  144.3800  170.2973 O.2     1  UNL1       -0.2739
     17 H         143.3958  144.8526  171.5023 H       1  UNL1        0.1450
     18 H         144.1239  143.3322  171.2451 H       1  UNL1        0.1450
     19 O         138.2775  139.2967  162.9853 O.3     1  UNL1       -0.4706
     20 C         137.6406  140.4256  162.2305 C.3     1  UNL1        0.2321
     21 C         138.0213  141.8433  162.5392 C.ar    1  UNL1        0.0234
     22 C         138.9600  142.5823  161.6322 C.ar    1  UNL1       -0.0005
     23 C         139.3406  144.0000  161.9409 C.ar    1  UNL1        0.0021
     24 C         138.7825  144.6786  163.1567 C.ar    1  UNL1        0.0296
     25 C         137.8438  143.9396  164.0636 C.ar    1  UNL1        0.1399
     26 F         137.2857  144.6183  165.2793 F       1  UNL1       -0.2042
     27 C         137.4632  142.5220  163.7549 C.ar    1  UNL1        0.0289
@<TRIPOS>BOND
     1    14    15   am
     2    15    16    2
     3     7    15    1
     4     7     8    1
     5     8     9    1
     6     9    10    1
     7    10    11    1
     8    11     1    1
     9     1     2   ar
    10     2     3   ar
    11     3     4   ar
    12     4    19    1
    13    19    20    1
    14    20    21    1
    15    21    22   ar
    16    22    23   ar
    17    23    24   ar
    18    24    25   ar
    19    25    26    1
    20    25    27   ar
    21     4     5   ar
    22     5     6   ar
    23    11    12    1
    24    12     7    1
    25     6     1   ar
    26    27    21   ar
    27    14    17    1
    28    14    18    1
    29    12    13    1
@<TRIPOS>MOLECULE
*****
 27 29 0 0 0
SMALL
GASTEIGER

@<TRIPOS>ATOM
      1 C         140.5724  139.7694  166.0713 C.ar    1  UNL1       -0.0069
      2 C         141.4045  139.4611  164.8620 C.ar    1  UNL1        0.0002
      3 C         140.7939  138.7444  163.6942 C.ar    1  UNL1        0.0366
      4 C         139.3512  138.3360  163.7359 C.ar    1  UNL1        0.1390
      5 C         138.5190  138.6443  164.9452 C.ar    1  UNL1        0.0366
      6 C         139.1296  139.3610  166.1129 C.ar    1  UNL1        0.0002
      7 C         141.2139  141.0296  169.7794 C.3     1  UNL1        0.1423
      8 C         142.4040  141.9194  169.5745 C.3     1  UNL1        0.0826
      9 S         142.9835  142.0925  168.2019 S.3     1  UNL1       -0.1366
     10 C         142.3730  141.3759  167.0341 C.3     1  UNL1        0.0778
     11 C         141.1829  140.4861  167.2391 C.3     1  UNL1        0.0881
     12 N         140.6034  140.3130  168.6117 N.3     1  UNL1       -0.2875
     13 H         140.6431  139.3162  168.8245 H       1  UNL1        0.1239
     14 N         139.9869  139.5586  171.5346 N.am    1  UNL1       -0.3277
     15 C         140.6344  140.8565  171.1521 C.2     1  UNL1        0.2345
     16 O         140.7024  141.9811  172.1422 O.2     1  UNL1       -0.2739
     17 H         139.6066  139.4450  172.4355 H       1  UNL1        0.1450
     18 H         139.9423  138.8205  170.8847 H       1  UNL1        0.1450
     19 O         138.7406  137.6193  162.5682 O.3     1  UNL1       -0.4706
     20 C         137.7552  138.3268  161.6859 C.3     1  UNL1        0.2321
     21 C         138.0381  139.7222  161.2138 C.ar    1  UNL1        0.0234
     22 C         138.7085  139.9449  159.8906 C.ar    1  UNL1       -0.0005
     23 C         138.9913  141.3403  159.4186 C.ar    1  UNL1        0.0021
     24 C         138.6037  142.5130  160.2698 C.ar    1  UNL1        0.0296
     25 C         137.9333  142.2903  161.5930 C.ar    1  UNL1        0.1399
     26 F         137.5457  143.4630  162.4442 F       1  UNL1       -0.2042
     27 C         137.6505  140.8949  162.0650 C.ar    1  UNL1        0.0289
@<TRIPOS>BOND
     1    14    15   am
     2    15    16    2
     3     7    15    1
     4     7     8    1
     5     8     9    1
     6     9    10    1
     7    10    11    1
     8    11     1    1
     9     1     2   ar
    10     2     3   ar
    11     3     4   ar
    12     4    19    1
    13    19    20    1
    14    20    21    1
    15    21    22   ar
    16    22    23   ar
    17    23    24   ar
    18    24    25   ar
    19    25    26    1
    20    25    27   ar
    21     4     5   ar
    22     5     6   ar
    23    11    12    1
    24    12     7    1
    25     6     1   ar
    26    27    21   ar
    27    14    17    1
    28    14    18    1
    29    12    13    1
@<TRIPOS>MOLECULE
*****
 27 29 0 0 0
SMALL
GASTEIGER

@<TRIPOS>ATOM
      1 C         139.7173  140.7431  167.2736 C.ar    1  UNL1       -0.0069
      2 C         139.8578  141.8101  166.2288 C.ar    1  UNL1        0.0002
      3 C         139.1241  141.6859  164.9264 C.ar    1  UNL1        0.0366
      4 C         138.2500  140.4945  164.6687 C.ar    1  UNL1        0.1390
      5 C         138.1095  139.4273  165.7135 C.ar    1  UNL1        0.0366
      6 C         138.8431  139.5516  167.0159 C.ar    1  UNL1        0.0002
      7 C         142.2201  139.9740  170.2560 C.3     1  UNL1        0.1423
      8 C         141.9183  141.1158  171.1808 C.3     1  UNL1        0.0826
      9 S         140.8829  142.1333  170.8032 S.3     1  UNL1       -0.1366
     10 C         140.1492  142.0090  169.5009 C.3     1  UNL1        0.0778
     11 C         140.4510  140.8673  168.5760 C.3     1  UNL1        0.0881
     12 N         141.4864  139.8498  168.9536 N.3     1  UNL1       -0.2875
     13 H         142.1913  139.8595  168.2165 H       1  UNL1        0.1239
     14 N         144.2761  139.2793  171.6843 N.am    1  UNL1       -0.3277
     15 C         143.2555  138.9565  170.6335 C.2     1  UNL1        0.2345
     16 O         143.2704  137.6162  169.9603 O.2     1  UNL1       -0.2739
     17 H         144.9557  138.6115  171.9321 H       1  UNL1        0.1450
     18 H         144.2663  140.1590  172.1262 H       1  UNL1        0.1450
     19 O         137.5163  140.3702  163.3663 O.3     1  UNL1       -0.4706
     20 C         138.1018  139.5567  162.2504 C.3     1  UNL1        0.2321
     21 C         139.4984  139.0213  162.3653 C.ar    1  UNL1        0.0234
     22 C         139.7394  137.6863  163.0053 C.ar    1  UNL1       -0.0005
     23 C         141.1358  137.1509  163.1203 C.ar    1  UNL1        0.0021
     24 C         142.2912  137.9505  162.5952 C.ar    1  UNL1        0.0296
     25 C         142.0502  139.2855  161.9552 C.ar    1  UNL1        0.1399
     26 F         143.2056  140.0851  161.4301 F       1  UNL1       -0.2042
     27 C         140.6537  139.8209  161.8403 C.ar    1  UNL1        0.0289
@<TRIPOS>BOND
     1    14    15   am
     2    15    16    2
     3     7    15    1
     4     7     8    1
     5     8     9    1
     6     9    10    1
     7    10    11    1
     8    11     1    1
     9     1     2   ar
    10     2     3   ar
    11     3     4   ar
    12     4    19    1
    13    19    20    1
    14    20    21    1
    15    21    22   ar
    16    22    23   ar
    17    23    24   ar
    18    24    25   ar
    19    25    26    1
    20    25    27   ar
    21     4     5   ar
    22     5     6   ar
    23    11    12    1
    24    12     7    1
    25     6     1   ar
    26    27    21   ar
    27    14    17    1
    28    14    18    1
    29    12    13    1
@<TRIPOS>MOLECULE
*****
 27 29 0 0 0
SMALL
GASTEIGER

@<TRIPOS>ATOM
      1 C         142.6567  140.3980  166.6364 C.ar    1  UNL1       -0.0069
      2 C         142.4032  141.2396  165.4210 C.ar    1  UNL1        0.0002
      3 C         142.8103  140.7419  164.0657 C.ar    1  UNL1        0.0366
      4 C         143.4709  139.4025  163.9260 C.ar    1  UNL1        0.1390
      5 C         143.7245  138.5608  165.1415 C.ar    1  UNL1        0.0366
      6 C         143.3174  139.0586  166.4967 C.ar    1  UNL1        0.0002
      7 C         140.6421  140.8094  170.0308 C.3     1  UNL1        0.1423
      8 C         141.4354  141.8911  170.7019 C.3     1  UNL1        0.0826
      9 S         142.6358  142.4752  170.0179 S.3     1  UNL1       -0.1366
     10 C         143.0429  141.9775  168.6628 C.3     1  UNL1        0.0778
     11 C         142.2496  140.8957  167.9916 C.3     1  UNL1        0.0881
     12 N         141.0492  140.3117  168.6756 N.3     1  UNL1       -0.2875
     13 H         141.2215  139.3107  168.7691 H       1  UNL1        0.1239
     14 N         139.5959  139.0342  171.6133 N.am    1  UNL1       -0.3277
     15 C         139.4416  140.2254  170.7148 C.2     1  UNL1        0.2345
     16 O         138.0869  140.8325  170.5003 O.2     1  UNL1       -0.2739
     17 H         138.8080  138.6509  172.0622 H       1  UNL1        0.1450
     18 H         140.4851  138.6357  171.7540 H       1  UNL1        0.1450
     19 O         143.8780  138.9047  162.5709 O.3     1  UNL1       -0.4706
     20 C         143.0527  137.8630  161.8755 C.3     1  UNL1        0.2321
     21 C         141.5556  137.9200  161.9490 C.ar    1  UNL1        0.0234
     22 C         140.7637  138.3869  160.7637 C.ar    1  UNL1       -0.0005
     23 C         139.2667  138.4439  160.8372 C.ar    1  UNL1        0.0021
     24 C         138.5614  138.0342  162.0960 C.ar    1  UNL1        0.0296
     25 C         139.3532  137.5674  163.2814 C.ar    1  UNL1        0.1399
     26 F         138.6480  137.1576  164.5402 F       1  UNL1       -0.2042
     27 C         140.8503  137.5103  163.2078 C.ar    1  UNL1        0.0289
@<TRIPOS>BOND
     1    14    15   am
     2    15    16    2
     3     7    15    1
     4     7     8    1
     5     8     9    1
     6     9    10    1
     7    10    11    1
     8    11     1    1
     9     1     2   ar
    10     2     3   ar
    11     3     4   ar
    12     4    19    1
    13    19    20    1
    14    20    21    1
    15    21    22   ar
    16    22    23   ar
    17    23    24   ar
    18    24    25   ar
    19    25    26    1
    20    25    27   ar
    21     4     5   ar
    22     5     6   ar
    23    11    12    1
    24    12     7    1
    25     6     1   ar
    26    27    21   ar
    27    14    17    1
    28    14    18    1
    29    12    13    1
@<TRIPOS>MOLECULE
*****
 27 29 0 0 0
SMALL
GASTEIGER

@<TRIPOS>ATOM
      1 C         139.7804  140.3120  167.1837 C.ar    1  UNL1       -0.0069
      2 C         140.3370  140.9628  165.9522 C.ar    1  UNL1        0.0002
      3 C         139.7913  140.6032  164.6020 C.ar    1  UNL1        0.0366
      4 C         138.6890  139.5929  164.4833 C.ar    1  UNL1        0.1390
      5 C         138.1323  138.9421  165.7149 C.ar    1  UNL1        0.0366
      6 C         138.6780  139.3017  167.0650 C.ar    1  UNL1        0.0002
      7 C         142.0370  141.9689  169.9966 C.3     1  UNL1        0.1423
      8 C         141.4175  141.3906  171.2342 C.3     1  UNL1        0.0826
      9 S         140.2523  140.4527  171.1216 S.3     1  UNL1       -0.1366
     10 C         139.7066  140.0932  169.7715 C.3     1  UNL1        0.0778
     11 C         140.3261  140.6715  168.5339 C.3     1  UNL1        0.0881
     12 N         141.4913  141.6094  168.6464 N.3     1  UNL1       -0.2875
     13 H         141.2106  142.4826  168.2002 H       1  UNL1        0.1239
     14 N         143.2535  143.9089  171.2240 N.am    1  UNL1       -0.3277
     15 C         143.2023  142.9067  170.1091 C.2     1  UNL1        0.2345
     16 O         144.3163  142.8424  169.1067 O.2     1  UNL1       -0.2739
     17 H         144.0183  144.5244  171.2978 H       1  UNL1        0.1450
     18 H         142.5224  143.9511  171.8819 H       1  UNL1        0.1450
     19 O         138.1433  139.2334  163.1332 O.3     1  UNL1       -0.4706
     20 C         138.6561  138.0200  162.4158 C.3     1  UNL1        0.2321
     21 C         139.8882  138.1163  161.5656 C.ar    1  UNL1        0.0234
     22 C         139.7766  138.5264  160.1271 C.ar    1  UNL1       -0.0005
     23 C         141.0086  138.6227  159.2769 C.ar    1  UNL1        0.0021
     24 C         142.3522  138.3089  159.8653 C.ar    1  UNL1        0.0296
     25 C         142.4639  137.8988  161.3037 C.ar    1  UNL1        0.1399
     26 F         143.8075  137.5850  161.8921 F       1  UNL1       -0.2042
     27 C         141.2319  137.8025  162.1539 C.ar    1  UNL1        0.0289
@<TRIPOS>BOND
     1    14    15   am
     2    15    16    2
     3     7    15    1
     4     7     8    1
     5     8     9    1
     6     9    10    1
     7    10    11    1
     8    11     1    1
     9     1     2   ar
    10     2     3   ar
    11     3     4   ar
    12     4    19    1
    13    19    20    1
    14    20    21    1
    15    21    22   ar
    16    22    23   ar
    17    23    24   ar
    18    24    25   ar
    19    25    26    1
    20    25    27   ar
    21     4     5   ar
    22     5     6   ar
    23    11    12    1
    24    12     7    1
    25     6     1   ar
    26    27    21   ar
    27    14    17    1
    28    14    18    1
    29    12    13    1
@<TRIPOS>MOLECULE
*****
 27 29 0 0 0
SMALL
GASTEIGER

@<TRIPOS>ATOM
      1 C         140.4387  143.1375  165.8618 C.ar    1  UNL1       -0.0069
      2 C         141.7078  143.2151  165.0660 C.ar    1  UNL1        0.0002
      3 C         141.7869  144.1113  163.8657 C.ar    1  UNL1        0.0366
      4 C         140.5968  144.9299  163.4613 C.ar    1  UNL1        0.1390
      5 C         139.3276  144.8523  164.2572 C.ar    1  UNL1        0.0366
      6 C         139.2486  143.9560  165.4574 C.ar    1  UNL1        0.0002
      7 C         140.8014  141.8180  169.5871 C.3     1  UNL1        0.1423
      8 C         140.2016  140.4489  169.4625 C.3     1  UNL1        0.0826
      9 S         139.6808  139.9759  168.1377 S.3     1  UNL1       -0.1366
     10 C         139.7598  140.8720  166.9375 C.3     1  UNL1        0.0778
     11 C         140.3596  142.2412  167.0621 C.3     1  UNL1        0.0881
     12 N         140.8804  142.7142  168.3868 N.3     1  UNL1       -0.2875
     13 H         140.3658  143.5637  168.6192 H       1  UNL1        0.1239
     14 N         142.6938  142.8904  171.0078 N.am    1  UNL1       -0.3277
     15 C         141.3222  142.2911  170.9119 C.2     1  UNL1        0.2345
     16 O         140.4713  142.1647  172.1407 O.2     1  UNL1       -0.2739
     17 H         143.0356  143.2009  171.8774 H       1  UNL1        0.1450
     18 H         143.2523  142.9734  170.2013 H       1  UNL1        0.1450
     19 O         140.6758  145.8261  162.2611 O.3     1  UNL1       -0.4706
     20 C         140.1821  145.3421  160.9300 C.3     1  UNL1        0.2321
     21 C         140.1667  143.8736  160.6245 C.ar    1  UNL1        0.0234
     22 C         141.3964  143.2072  160.0826 C.ar    1  UNL1       -0.0005
     23 C         141.3808  141.7388  159.7772 C.ar    1  UNL1        0.0021
     24 C         140.1356  140.9367  160.0136 C.ar    1  UNL1        0.0296
     25 C         138.9058  141.6030  160.5555 C.ar    1  UNL1        0.1399
     26 F         137.6606  140.8009  160.7920 F       1  UNL1       -0.2042
     27 C         138.9214  143.0715  160.8610 C.ar    1  UNL1        0.0289
@<TRIPOS>BOND
     1    14    15   am
     2    15    16    2
     3     7    15    1
     4     7     8    1
     5     8     9    1
     6     9    10    1
     7    10    11    1
     8    11     1    1
     9     1     2   ar
    10     2     3   ar
    11     3     4   ar
    12     4    19    1
    13    19    20    1
    14    20    21    1
    15    21    22   ar
    16    22    23   ar
    17    23    24   ar
    18    24    25   ar
    19    25    26    1
    20    25    27   ar
    21     4     5   ar
    22     5     6   ar
    23    11    12    1
    24    12     7    1
    25     6     1   ar
    26    27    21   ar
    27    14    17    1
    28    14    18    1
    29    12    13    1
@<TRIPOS>MOLECULE
*****
 27 29 0 0 0
SMALL
GASTEIGER

@<TRIPOS>ATOM
      1 C         141.0213  140.9718  164.3648 C.ar    1  UNL1       -0.0069
      2 C         140.4263  139.7341  164.9680 C.ar    1  UNL1        0.0002
      3 C         141.1350  139.0296  166.0868 C.ar    1  UNL1        0.0366
      4 C         142.4387  139.5630  166.6023 C.ar    1  UNL1        0.1390
      5 C         143.0337  140.8009  165.9991 C.ar    1  UNL1        0.0366
      6 C         142.3250  141.5052  164.8804 C.ar    1  UNL1        0.0002
      7 C         139.8403  143.8434  161.8931 C.3     1  UNL1        0.1423
      8 C         138.8953  143.0852  161.0087 C.3     1  UNL1        0.0826
      9 S         138.6590  141.6226  161.2429 S.3     1  UNL1       -0.1366
     10 C         139.3677  140.9181  162.3616 C.3     1  UNL1        0.0778
     11 C         140.3126  141.6763  163.2461 C.3     1  UNL1        0.0881
     12 N         140.5489  143.1389  163.0118 N.3     1  UNL1       -0.2875
     13 H         141.5487  143.2526  162.8448 H       1  UNL1        0.1239
     14 N         140.7065  146.1451  162.7307 N.am    1  UNL1       -0.3277
     15 C         140.0766  145.3060  161.6588 C.2     1  UNL1        0.2345
     16 O         139.6830  145.9295  160.3525 O.2     1  UNL1       -0.2739
     17 H         140.8615  147.1051  162.5769 H       1  UNL1        0.1450
     18 H         140.9648  145.7359  163.5880 H       1  UNL1        0.1450
     19 O         143.1474  138.8587  167.7210 O.3     1  UNL1       -0.4706
     20 C         142.8722  139.2449  169.1441 C.3     1  UNL1        0.2321
     21 C         141.9016  140.3475  169.4477 C.ar    1  UNL1        0.0234
     22 C         142.3729  141.7709  169.4904 C.ar    1  UNL1       -0.0005
     23 C         141.4023  142.8735  169.7941 C.ar    1  UNL1        0.0021
     24 C         139.9604  142.5527  170.0549 C.ar    1  UNL1        0.0296
     25 C         139.4891  141.1293  170.0122 C.ar    1  UNL1        0.1399
     26 F         138.0472  140.8085  170.2730 F       1  UNL1       -0.2042
     27 C         140.4597  140.0267  169.7086 C.ar    1  UNL1        0.0289
@<TRIPOS>BOND
     1    14    15   am
     2    15    16    2
     3     7    15    1
     4     7     8    1
     5     8     9    1
     6     9    10    1
     7    10    11    1
     8    11     1    1
     9     1     2   ar
    10     2     3   ar
    11     3     4   ar
    12     4    19    1
    13    19    20    1
    14    20    21    1
    15    21    22   ar
    16    22    23   ar
    17    23    24   ar
    18    24    25   ar
    19    25    26    1
    20    25    27   ar
    21     4     5   ar
    22     5     6   ar
    23    11    12    1
    24    12     7    1
    25     6     1   ar
    26    27    21   ar
    27    14    17    1
    28    14    18    1
    29    12    13    1
@<TRIPOS>MOLECULE
*****
 27 29 0 0 0
SMALL
GASTEIGER

@<TRIPOS>ATOM
      1 C         141.3724  139.8107  166.6041 C.ar    1  UNL1       -0.0069
      2 C         142.7302  139.1734  166.6114 C.ar    1  UNL1        0.0002
      3 C         143.2709  138.5458  165.3608 C.ar    1  UNL1        0.0366
      4 C         142.4537  138.5557  164.1030 C.ar    1  UNL1        0.1390
      5 C         141.0959  139.1931  164.0957 C.ar    1  UNL1        0.0366
      6 C         140.5552  139.8206  165.3463 C.ar    1  UNL1        0.0002
      7 C         140.9635  142.2724  169.6900 C.3     1  UNL1        0.1423
      8 C         139.7504  141.6934  170.3557 C.3     1  UNL1        0.0826
      9 S         139.0780  140.4868  169.7709 S.3     1  UNL1       -0.1366
     10 C         139.6186  139.8593  168.5204 C.3     1  UNL1        0.0778
     11 C         140.8317  140.4383  167.8547 C.3     1  UNL1        0.0881
     12 N         141.5041  141.6449  168.4395 N.3     1  UNL1       -0.2875
     13 H         141.4923  142.3667  167.7190 H       1  UNL1        0.1239
     14 N         143.0733  143.4056  170.6972 N.am    1  UNL1       -0.3277
     15 C         141.6359  143.4790  170.2749 C.2     1  UNL1        0.2345
     16 O         140.8709  144.7590  170.4373 O.2     1  UNL1       -0.2739
     17 H         143.5146  144.1975  171.0811 H       1  UNL1        0.1450
     18 H         143.5754  142.5655  170.5906 H       1  UNL1        0.1450
     19 O         142.9944  137.9281  162.8524 O.3     1  UNL1       -0.4706
     20 C         144.0789  138.6154  162.0769 C.3     1  UNL1        0.2321
     21 C         144.2747  140.0964  162.2125 C.ar    1  UNL1        0.0234
     22 C         145.1368  140.6414  163.3123 C.ar    1  UNL1       -0.0005
     23 C         145.3326  142.1223  163.4478 C.ar    1  UNL1        0.0021
     24 C         144.6662  143.0583  162.4835 C.ar    1  UNL1        0.0296
     25 C         143.8042  142.5133  161.3836 C.ar    1  UNL1        0.1399
     26 F         143.1378  143.4493  160.4193 F       1  UNL1       -0.2042
     27 C         143.6084  141.0324  161.2481 C.ar    1  UNL1        0.0289
@<TRIPOS>BOND
     1    14    15   am
     2    15    16    2
     3     7    15    1
     4     7     8    1
     5     8     9    1
     6     9    10    1
     7    10    11    1
     8    11     1    1
     9     1     2   ar
    10     2     3   ar
    11     3     4   ar
    12     4    19    1
    13    19    20    1
    14    20    21    1
    15    21    22   ar
    16    22    23   ar
    17    23    24   ar
    18    24    25   ar
    19    25    26    1
    20    25    27   ar
    21     4     5   ar
    22     5     6   ar
    23    11    12    1
    24    12     7    1
    25     6     1   ar
    26    27    21   ar
    27    14    17    1
    28    14    18    1
    29    12    13    1
