@<TRIPOS>MOLECULE
*****
 32 34 0 0 0
SMALL
GASTEIGER

@<TRIPOS>ATOM
      1 N1        138.0803  139.8029  165.5161 N.am    1  <1>        -0.2946
      2 C1        138.5890  139.0104  164.3485 C.2     1  <1>         0.2618
      3 O1        139.1979  137.6574  164.5685 O.2     1  <1>        -0.2686
      4 H1        137.6806  140.6910  165.3716 H       1  <1>         0.1501
      5 C2        138.4887  139.5710  162.9608 C.ar    1  <1>         0.1107
      6 C3        137.7743  138.9381  161.8036 C.ar    1  <1>         0.0231
      7 C4        137.9293  139.8389  160.6143 C.ar    1  <1>         0.0186
      8 C5        138.7396  141.0285  161.0364 C.ar    1  <1>         0.0569
      9 N2        139.0853  140.8630  162.4866 N.ar    1  <1>        -0.3496
     10 H2        139.6114  141.4919  163.0315 H       1  <1>         0.1661
     11 C6        139.1348  142.1814  160.1618 C.ar    1  <1>         0.0201
     12 C7        139.8171  143.3763  160.7589 C.ar    1  <1>         0.0321
     13 C8        140.2123  144.5291  159.8843 C.ar    1  <1>         0.1528
     14 F1        140.8947  145.7241  160.4814 F       1  <1>        -0.2032
     15 C9        139.9251  144.4870  158.4127 C.ar    1  <1>         0.1124
     16 Cl1       140.3203  145.6398  157.5381 Cl      1  <1>        -0.0775
     17 C10       139.2427  143.2921  157.8156 C.ar    1  <1>         0.1528
     18 F2        138.9555  143.2499  156.3439 F       1  <1>        -0.2032
     19 C11       138.8476  142.1393  158.6901 C.ar    1  <1>         0.0321
     20 C12       138.1805  139.2423  166.9038 C.3     1  <1>         0.1341
     21 C13       139.2641  139.7149  167.8271 C.ar    1  <1>         0.1071
     22 N3        139.1295  139.9349  169.3047 N.ar    1  <1>        -0.2428
     23 C14       140.4548  140.4065  169.8257 C.ar    1  <1>         0.0952
     24 C15       141.4084  140.4779  168.6700 C.ar    1  <1>         0.0538
     25 S1        140.6725  140.0505  167.4348 S.2     1  <1>        -0.0689
     26 C16       140.7709  140.7468  171.2520 C.3     1  <1>         0.1834
     27 O2        142.1865  140.6785  171.7433 O.3     1  <1>        -0.3760
     28 H3        142.4911  139.7578  171.7248 H       1  <1>         0.2110
     29 N4        137.3924  136.7685  166.9988 N.3     1  <1>        -0.3194
     30 C17       137.1972  138.2091  167.3681 C.3     1  <1>         0.0917
     31 H4        136.6365  136.2103  167.3955 H       1  <1>         0.1189
     32 H5        138.2858  136.4412  167.3665 H       1  <1>         0.1189
@<TRIPOS>BOND
     1    29    30    1
     2    20    30    1
     3    20     1    1
     4     1     2   am
     5     2     3    2
     6     2     5    1
     7     5     6   ar
     8     6     7   ar
     9     7     8   ar
    10     8    11    1
    11    11    12   ar
    12    12    13   ar
    13    13    14    1
    14    13    15   ar
    15    15    16    1
    16    15    17   ar
    17    17    18    1
    18    17    19   ar
    19     8     9   ar
    20    20    21    1
    21    21    22   ar
    22    22    23   ar
    23    23    26    1
    24    26    27    1
    25    23    24   ar
    26    24    25   ar
    27     9     5   ar
    28    25    21   ar
    29    19    11   ar
    30    29    31    1
    31    29    32    1
    32     1     4    1
    33     9    10    1
    34    27    28    1
@<TRIPOS>MOLECULE
*****
 32 34 0 0 0
SMALL
GASTEIGER

@<TRIPOS>ATOM
      1 N1        141.9456  137.5306  157.8233 N.am    1  <1>        -0.2946
      2 C1        140.5493  138.0257  157.5883 C.2     1  <1>         0.2618
      3 O1        139.9130  137.8634  156.2397 O.2     1  <1>        -0.2686
      4 H1        142.3632  137.6371  158.7085 H       1  <1>         0.1501
      5 C2        139.7893  138.6831  158.7019 C.ar    1  <1>         0.1107
      6 C3        138.7663  139.7696  158.5500 C.ar    1  <1>         0.0231
      7 C4        138.2636  140.1275  159.9172 C.ar    1  <1>         0.0186
      8 C5        138.9759  139.2622  160.9141 C.ar    1  <1>         0.0569
      9 N2        139.9189  138.3696  160.1631 N.ar    1  <1>        -0.3496
     10 H2        140.5177  137.6961  160.5595 H       1  <1>         0.1661
     11 C6        138.7798  139.2855  162.4011 C.ar    1  <1>         0.0201
     12 C7        138.4495  140.5742  163.0939 C.ar    1  <1>         0.0321
     13 C8        138.2534  140.5974  164.5809 C.ar    1  <1>         0.1528
     14 F1        137.9230  141.8862  165.2738 F       1  <1>        -0.2032
     15 C9        138.3875  139.3319  165.3749 C.ar    1  <1>         0.1124
     16 Cl1       138.1914  139.3552  166.8619 Cl      1  <1>        -0.0775
     17 C10       138.7178  138.0432  164.6821 C.ar    1  <1>         0.1528
     18 F2        138.8520  136.7777  165.4761 F       1  <1>        -0.2032
     19 C11       138.9139  138.0200  163.1952 C.ar    1  <1>         0.0321
     20 C12       142.7056  136.8731  156.7097 C.3     1  <1>         0.1341
     21 C13       142.5205  135.4098  156.4371 C.ar    1  <1>         0.1071
     22 N3        143.2131  134.2857  157.1490 N.ar    1  <1>        -0.2428
     23 C14       142.7309  132.9948  156.5566 C.ar    1  <1>         0.0952
     24 C15       141.7403  133.3210  155.4785 C.ar    1  <1>         0.0538
     25 S1        141.6103  134.8135  155.4046 S.2     1  <1>        -0.0689
     26 C16       143.1634  131.6192  156.9697 C.3     1  <1>         0.1834
     27 O2        144.1952  131.4487  158.0450 O.3     1  <1>        -0.3760
     28 H3        145.0449  131.8002  157.7363 H       1  <1>         0.2110
     29 N4        144.8352  137.0179  155.2286 N.3     1  <1>        -0.3194
     30 C17       143.6508  137.6790  155.8687 C.3     1  <1>         0.0917
     31 H4        145.3650  137.7094  154.6978 H       1  <1>         0.1189
     32 H5        144.5149  136.2802  154.6012 H       1  <1>         0.1189
@<TRIPOS>BOND
     1    29    30    1
     2    20    30    1
     3    20     1    1
     4     1     2   am
     5     2     3    2
     6     2     5    1
     7     5     6   ar
     8     6     7   ar
     9     7     8   ar
    10     8    11    1
    11    11    12   ar
    12    12    13   ar
    13    13    14    1
    14    13    15   ar
    15    15    16    1
    16    15    17   ar
    17    17    18    1
    18    17    19   ar
    19     8     9   ar
    20    20    21    1
    21    21    22   ar
    22    22    23   ar
    23    23    26    1
    24    26    27    1
    25    23    24   ar
    26    24    25   ar
    27     9     5   ar
    28    25    21   ar
    29    19    11   ar
    30    29    31    1
    31    29    32    1
    32     1     4    1
    33     9    10    1
    34    27    28    1
@<TRIPOS>MOLECULE
*****
 32 34 0 0 0
SMALL
GASTEIGER

@<TRIPOS>ATOM
      1 N1        141.6072  138.4193  158.5282 N.am    1  <1>        -0.2946
      2 C1        142.0406  138.3140  159.9603 C.2     1  <1>         0.2618
      3 O1        143.4923  138.1361  160.2935 O.2     1  <1>        -0.2686
      4 H1        140.6544  138.5360  158.3095 H       1  <1>         0.1501
      5 C2        141.0224  138.3865  161.0593 C.ar    1  <1>         0.1107
      6 C3        139.5667  138.0460  160.9365 C.ar    1  <1>         0.0231
      7 C4        138.9256  138.2613  162.2754 C.ar    1  <1>         0.0186
      8 C5        139.9851  138.7349  163.2258 C.ar    1  <1>         0.0569
      9 N2        141.2809  138.8122  162.4742 N.ar    1  <1>        -0.3496
     10 H2        142.1488  139.0932  162.8445 H       1  <1>         0.1661
     11 C6        139.7840  139.0719  164.6736 C.ar    1  <1>         0.0201
     12 C7        140.8376  139.8364  165.4189 C.ar    1  <1>         0.0321
     13 C8        140.6365  140.1734  166.8667 C.ar    1  <1>         0.1528
     14 F1        141.6901  140.9379  167.6121 F       1  <1>        -0.2032
     15 C9        139.3819  139.7460  167.5690 C.ar    1  <1>         0.1124
     16 Cl1       139.1808  140.0830  169.0168 Cl      1  <1>        -0.0775
     17 C10       138.3284  138.9815  166.8236 C.ar    1  <1>         0.1528
     18 F2        137.0738  138.5541  167.5259 F       1  <1>        -0.2032
     19 C11       138.5294  138.6445  165.3759 C.ar    1  <1>         0.0321
     20 C12       142.6255  138.3468  157.4291 C.3     1  <1>         0.1341
     21 C13       142.8545  137.0544  156.7030 C.ar    1  <1>         0.1071
     22 N3        143.0191  135.7045  157.3361 N.ar    1  <1>        -0.2428
     23 C14       143.2254  134.7008  156.2406 C.ar    1  <1>         0.0952
     24 C15       143.1883  135.4304  154.9305 C.ar    1  <1>         0.0538
     25 S1        142.9591  136.8849  155.2163 S.2     1  <1>        -0.0689
     26 C16       143.4325  133.2265  156.4232 C.3     1  <1>         0.1834
     27 O2        142.7649  132.5104  157.5597 O.3     1  <1>        -0.3760
     28 H3        143.1269  132.8306  158.4008 H       1  <1>         0.2110
     29 N4        144.4420  140.1135  158.0027 N.3     1  <1>        -0.3194
     30 C17       143.4148  139.5666  157.0563 C.3     1  <1>         0.0917
     31 H4        144.8789  140.9381  157.5908 H       1  <1>         0.1189
     32 H5        145.1534  139.4042  158.1793 H       1  <1>         0.1189
@<TRIPOS>BOND
     1    29    30    1
     2    20    30    1
     3    20     1    1
     4     1     2   am
     5     2     3    2
     6     2     5    1
     7     5     6   ar
     8     6     7   ar
     9     7     8   ar
    10     8    11    1
    11    11    12   ar
    12    12    13   ar
    13    13    14    1
    14    13    15   ar
    15    15    16    1
    16    15    17   ar
    17    17    18    1
    18    17    19   ar
    19     8     9   ar
    20    20    21    1
    21    21    22   ar
    22    22    23   ar
    23    23    26    1
    24    26    27    1
    25    23    24   ar
    26    24    25   ar
    27     9     5   ar
    28    25    21   ar
    29    19    11   ar
    30    29    31    1
    31    29    32    1
    32     1     4    1
    33     9    10    1
    34    27    28    1
@<TRIPOS>MOLECULE
*****
 32 34 0 0 0
SMALL
GASTEIGER

@<TRIPOS>ATOM
      1 N1        141.6384  137.7990  157.6078 N.am    1  <1>        -0.2946
      2 C1        142.0451  138.0330  159.0326 C.2     1  <1>         0.2618
      3 O1        143.4370  137.6977  159.4799 O.2     1  <1>        -0.2686
      4 H1        140.7248  138.0191  157.3142 H       1  <1>         0.1501
      5 C2        141.0598  138.6021  160.0100 C.ar    1  <1>         0.1107
      6 C3        139.8984  139.4904  159.6751 C.ar    1  <1>         0.0231
      7 C4        139.1838  139.8202  160.9520 C.ar    1  <1>         0.0186
      8 C5        139.9035  139.1358  162.0761 C.ar    1  <1>         0.0569
      9 N2        141.0630  138.3830  161.4939 N.ar    1  <1>        -0.3496
     10 H2        141.7121  137.8404  161.9973 H       1  <1>         0.1661
     11 C6        139.5295  139.1940  163.5276 C.ar    1  <1>         0.0201
     12 C7        138.9076  138.0007  164.1903 C.ar    1  <1>         0.0321
     13 C8        138.5337  138.0589  165.6417 C.ar    1  <1>         0.1528
     14 F1        137.9118  136.8655  166.3045 F       1  <1>        -0.2032
     15 C9        138.7816  139.3104  166.4305 C.ar    1  <1>         0.1124
     16 Cl1       138.4076  139.3686  167.8820 Cl      1  <1>        -0.0775
     17 C10       139.4034  140.5038  165.7678 C.ar    1  <1>         0.1528
     18 F2        139.6513  141.7553  166.5566 F       1  <1>        -0.2032
     19 C11       139.7774  140.4456  164.3164 C.ar    1  <1>         0.0321
     20 C12       142.6236  137.2299  156.6304 C.3     1  <1>         0.1341
     21 C13       142.6742  135.7497  156.3924 C.ar    1  <1>         0.1071
     22 N3        143.6985  134.8026  156.9436 N.ar    1  <1>        -0.2428
     23 C14       143.3667  133.4244  156.4532 C.ar    1  <1>         0.0952
     24 C15       142.1374  133.5197  155.5990 C.ar    1  <1>         0.0538
     25 S1        141.7094  134.9569  155.5614 S.2     1  <1>        -0.0689
     26 C16       144.1302  132.1709  156.7627 C.3     1  <1>         0.1834
     27 O2        145.5883  132.0777  156.4232 O.3     1  <1>        -0.3760
     28 H3        145.6980  132.1008  155.4597 H       1  <1>         0.2110
     29 N4        144.8387  137.6025  155.3249 N.3     1  <1>        -0.3194
     30 C17       143.5582  138.1408  155.8910 C.3     1  <1>         0.0917
     31 H4        145.3469  138.3541  154.8587 H       1  <1>         0.1189
     32 H5        144.6294  136.8652  154.6518 H       1  <1>         0.1189
@<TRIPOS>BOND
     1    29    30    1
     2    20    30    1
     3    20     1    1
     4     1     2   am
     5     2     3    2
     6     2     5    1
     7     5     6   ar
     8     6     7   ar
     9     7     8   ar
    10     8    11    1
    11    11    12   ar
    12    12    13   ar
    13    13    14    1
    14    13    15   ar
    15    15    16    1
    16    15    17   ar
    17    17    18    1
    18    17    19   ar
    19     8     9   ar
    20    20    21    1
    21    21    22   ar
    22    22    23   ar
    23    23    26    1
    24    26    27    1
    25    23    24   ar
    26    24    25   ar
    27     9     5   ar
    28    25    21   ar
    29    19    11   ar
    30    29    31    1
    31    29    32    1
    32     1     4    1
    33     9    10    1
    34    27    28    1
@<TRIPOS>MOLECULE
*****
 32 34 0 0 0
SMALL
GASTEIGER

@<TRIPOS>ATOM
      1 N1        138.9775  138.8460  160.5734 N.am    1  <1>        -0.2946
      2 C1        139.8414  139.5117  161.6032 C.2     1  <1>         0.2618
      3 O1        140.8104  140.5803  161.1920 O.2     1  <1>        -0.2686
      4 H1        138.3415  138.1446  160.8433 H       1  <1>         0.1501
      5 C2        139.7363  139.1089  163.0443 C.ar    1  <1>         0.1107
      6 C3        139.1738  137.8174  163.5600 C.ar    1  <1>         0.0231
      7 C4        139.2652  137.8371  165.0571 C.ar    1  <1>         0.0186
      8 C5        139.8840  139.1407  165.4666 C.ar    1  <1>         0.0569
      9 N2        140.1752  139.9266  164.2226 N.ar    1  <1>        -0.3496
     10 H2        140.5829  140.8220  164.1860 H       1  <1>         0.1661
     11 C6        140.1628  139.5810  166.8732 C.ar    1  <1>         0.0201
     12 C7        139.0291  139.7848  167.8339 C.ar    1  <1>         0.0321
     13 C8        139.3079  140.2251  169.2405 C.ar    1  <1>         0.1528
     14 F1        138.1741  140.4290  170.2013 F       1  <1>        -0.2032
     15 C9        140.7205  140.4616  169.6863 C.ar    1  <1>         0.1124
     16 Cl1       140.9993  140.9019  171.0929 Cl      1  <1>        -0.0775
     17 C10       141.8542  140.2577  168.7256 C.ar    1  <1>         0.1528
     18 F2        143.2668  140.4942  169.1714 F       1  <1>        -0.2032
     19 C11       141.5754  139.8174  167.3190 C.ar    1  <1>         0.0321
     20 C12       139.0826  139.2488  159.1324 C.3     1  <1>         0.1341
     21 C13       139.9903  138.4942  158.2069 C.ar    1  <1>         0.1071
     22 N3        139.5580  137.5993  157.0834 N.ar    1  <1>        -0.2428
     23 C14       140.7904  137.0540  156.4247 C.ar    1  <1>         0.0952
     24 C15       141.9844  137.6117  157.1411 C.ar    1  <1>         0.0538
     25 S1        141.4899  138.5018  158.2426 S.2     1  <1>        -0.0689
     26 C16       140.8230  136.1156  155.2549 C.3     1  <1>         0.1834
     27 O2        140.9240  134.6365  155.4825 O.3     1  <1>        -0.3760
     28 H3        141.7834  134.4286  155.8813 H       1  <1>         0.2110
     29 N4        137.5293  140.2819  157.3240 N.3     1  <1>        -0.3194
     30 C17       138.2798  140.4063  158.6167 C.3     1  <1>         0.0917
     31 H4        137.0428  141.1566  157.1278 H       1  <1>         0.1189
     32 H5        136.8505  139.5241  157.3965 H       1  <1>         0.1189
@<TRIPOS>BOND
     1    29    30    1
     2    20    30    1
     3    20     1    1
     4     1     2   am
     5     2     3    2
     6     2     5    1
     7     5     6   ar
     8     6     7   ar
     9     7     8   ar
    10     8    11    1
    11    11    12   ar
    12    12    13   ar
    13    13    14    1
    14    13    15   ar
    15    15    16    1
    16    15    17   ar
    17    17    18    1
    18    17    19   ar
    19     8     9   ar
    20    20    21    1
    21    21    22   ar
    22    22    23   ar
    23    23    26    1
    24    26    27    1
    25    23    24   ar
    26    24    25   ar
    27     9     5   ar
    28    25    21   ar
    29    19    11   ar
    30    29    31    1
    31    29    32    1
    32     1     4    1
    33     9    10    1
    34    27    28    1
@<TRIPOS>MOLECULE
*****
 32 34 0 0 0
SMALL
GASTEIGER

@<TRIPOS>ATOM
      1 N1        140.0011  143.1838  161.6941 N.am    1  <1>        -0.2946
      2 C1        138.8844  143.1635  162.6954 C.2     1  <1>         0.2618
      3 O1        137.6735  144.0237  162.4859 O.2     1  <1>        -0.2686
      4 H1        140.7958  142.6192  161.8316 H       1  <1>         0.1501
      5 C2        138.9785  142.2831  163.9061 C.ar    1  <1>         0.1107
      6 C3        138.2016  141.0217  164.1417 C.ar    1  <1>         0.0231
      7 C4        138.6090  140.4685  165.4751 C.ar    1  <1>         0.0186
      8 C5        139.6377  141.3879  166.0636 C.ar    1  <1>         0.0569
      9 N2        139.8661  142.5094  165.0940 N.ar    1  <1>        -0.3496
     10 H2        140.4892  143.2618  165.2158 H       1  <1>         0.1661
     11 C6        140.3186  141.2160  167.3892 C.ar    1  <1>         0.0201
     12 C7        141.6936  141.7754  167.6041 C.ar    1  <1>         0.0321
     13 C8        142.3744  141.6035  168.9296 C.ar    1  <1>         0.1528
     14 F1        143.7496  142.1629  169.1446 F       1  <1>        -0.2032
     15 C9        141.6802  140.8723  170.0401 C.ar    1  <1>         0.1124
     16 Cl1       142.3610  140.7004  171.3656 Cl      1  <1>        -0.0775
     17 C10       140.3051  140.3129  169.8251 C.ar    1  <1>         0.1528
     18 F2        139.6108  139.5816  170.9357 F       1  <1>        -0.2032
     19 C11       139.6243  140.4848  168.4997 C.ar    1  <1>         0.0321
     20 C12       139.9070  144.0642  160.4833 C.3     1  <1>         0.1341
     21 C13       139.4462  143.4934  159.1750 C.ar    1  <1>         0.1071
     22 N3        138.2010  142.6866  158.9546 N.ar    1  <1>        -0.2428
     23 C14       138.1350  142.3237  157.5007 C.ar    1  <1>         0.0952
     24 C15       139.3394  142.9062  156.8224 C.ar    1  <1>         0.0538
     25 S1        140.1498  143.6291  157.8572 S.2     1  <1>        -0.0689
     26 C16       137.0543  141.5196  156.8409 C.3     1  <1>         0.1834
     27 O2        137.3188  140.1009  156.4317 O.3     1  <1>        -0.3760
     28 H3        137.9851  140.0865  155.7269 H       1  <1>         0.2110
     29 N4        139.3841  146.4652  161.3269 N.3     1  <1>        -0.3194
     30 C17       140.2736  145.5154  160.5809 C.3     1  <1>         0.0917
     31 H4        139.7831  147.4032  161.2921 H       1  <1>         0.1189
     32 H5        139.3052  146.1651  162.2986 H       1  <1>         0.1189
@<TRIPOS>BOND
     1    29    30    1
     2    20    30    1
     3    20     1    1
     4     1     2   am
     5     2     3    2
     6     2     5    1
     7     5     6   ar
     8     6     7   ar
     9     7     8   ar
    10     8    11    1
    11    11    12   ar
    12    12    13   ar
    13    13    14    1
    14    13    15   ar
    15    15    16    1
    16    15    17   ar
    17    17    18    1
    18    17    19   ar
    19     8     9   ar
    20    20    21    1
    21    21    22   ar
    22    22    23   ar
    23    23    26    1
    24    26    27    1
    25    23    24   ar
    26    24    25   ar
    27     9     5   ar
    28    25    21   ar
    29    19    11   ar
    30    29    31    1
    31    29    32    1
    32     1     4    1
    33     9    10    1
    34    27    28    1
@<TRIPOS>MOLECULE
*****
 32 34 0 0 0
SMALL
GASTEIGER

@<TRIPOS>ATOM
      1 N1        141.6027  137.9808  157.5319 N.am    1  <1>        -0.2946
      2 C1        141.9749  138.3776  158.9297 C.2     1  <1>         0.2618
      3 O1        143.3769  138.1689  159.4205 O.2     1  <1>        -0.2686
      4 H1        140.6825  138.1178  157.2097 H       1  <1>         0.1501
      5 C2        140.9451  138.9832  159.8368 C.ar    1  <1>         0.1107
      6 C3        139.5391  138.4954  160.0243 C.ar    1  <1>         0.0231
      7 C4        138.8656  139.3937  161.0190 C.ar    1  <1>         0.0186
      8 C5        139.8553  140.4367  161.4463 C.ar    1  <1>         0.0569
      9 N2        141.1405  140.1830  160.7156 N.ar    1  <1>        -0.3496
     10 H2        141.9672  140.7112  160.7984 H       1  <1>         0.1661
     11 C6        139.6040  141.5397  162.4313 C.ar    1  <1>         0.0201
     12 C7        140.4471  141.6481  163.6672 C.ar    1  <1>         0.0321
     13 C8        140.1957  142.7511  164.6522 C.ar    1  <1>         0.1528
     14 F1        141.0388  142.8595  165.8881 F       1  <1>        -0.2032
     15 C9        139.1013  143.7457  164.4012 C.ar    1  <1>         0.1124
     16 Cl1       138.8500  144.8488  165.3863 Cl      1  <1>        -0.0775
     17 C10       138.2583  143.6374  163.1654 C.ar    1  <1>         0.1528
     18 F2        137.1639  144.6320  162.9144 F       1  <1>        -0.2032
     19 C11       138.5096  142.5344  162.1804 C.ar    1  <1>         0.0321
     20 C12       142.6324  137.3752  156.6248 C.3     1  <1>         0.1341
     21 C13       142.6696  135.8899  156.4184 C.ar    1  <1>         0.1071
     22 N3        143.6986  134.9485  156.9705 N.ar    1  <1>        -0.2428
     23 C14       143.3492  133.5620  156.5170 C.ar    1  <1>         0.0952
     24 C15       142.1042  133.6466  155.6846 C.ar    1  <1>         0.0538
     25 S1        141.6842  135.0853  155.6237 S.2     1  <1>        -0.0689
     26 C16       144.1110  132.3107  156.8393 C.3     1  <1>         0.1834
     27 O2        145.5462  132.1784  156.4237 O.3     1  <1>        -0.3760
     28 H3        145.6018  132.1574  155.4556 H       1  <1>         0.2110
     29 N4        144.8824  137.6642  155.3583 N.3     1  <1>        -0.3194
     30 C17       143.6250  138.2548  155.9241 C.3     1  <1>         0.0917
     31 H4        145.4368  138.4002  154.9208 H       1  <1>         0.1189
     32 H5        144.6432  136.9589  154.6614 H       1  <1>         0.1189
@<TRIPOS>BOND
     1    29    30    1
     2    20    30    1
     3    20     1    1
     4     1     2   am
     5     2     3    2
     6     2     5    1
     7     5     6   ar
     8     6     7   ar
     9     7     8   ar
    10     8    11    1
    11    11    12   ar
    12    12    13   ar
    13    13    14    1
    14    13    15   ar
    15    15    16    1
    16    15    17   ar
    17    17    18    1
    18    17    19   ar
    19     8     9   ar
    20    20    21    1
    21    21    22   ar
    22    22    23   ar
    23    23    26    1
    24    26    27    1
    25    23    24   ar
    26    24    25   ar
    27     9     5   ar
    28    25    21   ar
    29    19    11   ar
    30    29    31    1
    31    29    32    1
    32     1     4    1
    33     9    10    1
    34    27    28    1
@<TRIPOS>MOLECULE
*****
 32 34 0 0 0
SMALL
GASTEIGER

@<TRIPOS>ATOM
      1 N1        138.6894  140.8475  159.1435 N.am    1  <1>        -0.2946
      2 C1        138.4765  141.4575  160.4972 C.2     1  <1>         0.2618
      3 O1        138.1252  142.9108  160.6182 O.2     1  <1>        -0.2686
      4 H1        138.9199  139.8937  159.0641 H       1  <1>         0.1501
      5 C2        138.6151  140.6143  161.7300 C.ar    1  <1>         0.1107
      6 C3        138.0811  139.2244  161.9121 C.ar    1  <1>         0.0231
      7 C4        138.4479  138.7640  163.2918 C.ar    1  <1>         0.0186
      8 C5        139.2085  139.8693  163.9624 C.ar    1  <1>         0.0569
      9 N2        139.3118  141.0129  162.9972 N.ar    1  <1>        -0.3496
     10 H2        139.7584  141.8739  163.1657 H       1  <1>         0.1661
     11 C6        139.7676  139.8369  165.3540 C.ar    1  <1>         0.0201
     12 C7        141.2495  139.7400  165.5647 C.ar    1  <1>         0.0321
     13 C8        141.8086  139.7075  166.9563 C.ar    1  <1>         0.1528
     14 F1        143.2906  139.6106  167.1671 F       1  <1>        -0.2032
     15 C9        140.8857  139.7720  168.1370 C.ar    1  <1>         0.1124
     16 Cl1       141.4449  139.7396  169.5286 Cl      1  <1>        -0.0775
     17 C10       139.4038  139.8690  167.9262 C.ar    1  <1>         0.1528
     18 F2        138.4810  139.9335  169.1070 F       1  <1>        -0.2032
     19 C11       138.8448  139.9014  166.5347 C.ar    1  <1>         0.0321
     20 C12       138.5508  141.6907  157.9107 C.3     1  <1>         0.1341
     21 C13       137.3390  141.5498  157.0380 C.ar    1  <1>         0.1071
     22 N3        136.3275  140.4443  157.1056 N.ar    1  <1>        -0.2428
     23 C14       135.2893  140.7011  156.0538 C.ar    1  <1>         0.0952
     24 C15       135.6591  141.9653  155.3362 C.ar    1  <1>         0.0538
     25 S1        136.9259  142.4898  155.9445 S.2     1  <1>        -0.0689
     26 C16       134.0914  139.8441  155.7696 C.3     1  <1>         0.1834
     27 O2        133.8979  138.5554  156.5126 O.3     1  <1>        -0.3760
     28 H3        134.6029  137.9342  156.2715 H       1  <1>         0.2110
     29 N4        139.6723  144.0129  158.2266 N.3     1  <1>        -0.3194
     30 C17       139.6242  142.6748  157.5506 C.3     1  <1>         0.0917
     31 H4        140.4599  144.5494  157.8631 H       1  <1>         0.1189
     32 H5        139.7851  143.8821  159.2319 H       1  <1>         0.1189
@<TRIPOS>BOND
     1    29    30    1
     2    20    30    1
     3    20     1    1
     4     1     2   am
     5     2     3    2
     6     2     5    1
     7     5     6   ar
     8     6     7   ar
     9     7     8   ar
    10     8    11    1
    11    11    12   ar
    12    12    13   ar
    13    13    14    1
    14    13    15   ar
    15    15    16    1
    16    15    17   ar
    17    17    18    1
    18    17    19   ar
    19     8     9   ar
    20    20    21    1
    21    21    22   ar
    22    22    23   ar
    23    23    26    1
    24    26    27    1
    25    23    24   ar
    26    24    25   ar
    27     9     5   ar
    28    25    21   ar
    29    19    11   ar
    30    29    31    1
    31    29    32    1
    32     1     4    1
    33     9    10    1
    34    27    28    1
@<TRIPOS>MOLECULE
*****
 32 34 0 0 0
SMALL
GASTEIGER

@<TRIPOS>ATOM
      1 N1        139.8311  142.1856  161.2362 N.am    1  <1>        -0.2946
      2 C1        138.8319  142.5211  162.3035 C.2     1  <1>         0.2618
      3 O1        137.7598  143.5353  162.0351 O.2     1  <1>        -0.2686
      4 H1        140.5348  141.5200  161.4124 H       1  <1>         0.1501
      5 C2        138.9048  141.8424  163.6392 C.ar    1  <1>         0.1107
      6 C3        138.1917  140.5810  164.0274 C.ar    1  <1>         0.0231
      7 C4        138.5497  140.2649  165.4493 C.ar    1  <1>         0.0186
      8 C5        139.4841  141.3308  165.9399 C.ar    1  <1>         0.0569
      9 N2        139.7035  142.3057  164.8212 N.ar    1  <1>        -0.3496
     10 H2        140.2720  143.1088  164.8566 H       1  <1>         0.1661
     11 C6        140.0923  141.4083  167.3090 C.ar    1  <1>         0.0201
     12 C7        140.4386  140.1499  168.0481 C.ar    1  <1>         0.0321
     13 C8        141.0468  140.2274  169.4170 C.ar    1  <1>         0.1528
     14 F1        141.3931  138.9689  170.1562 F       1  <1>        -0.2032
     15 C9        141.3086  141.5633  170.0469 C.ar    1  <1>         0.1124
     16 Cl1       141.9168  141.6408  171.4159 Cl      1  <1>        -0.0775
     17 C10       140.9623  142.8218  169.3077 C.ar    1  <1>         0.1528
     18 F2        141.2242  144.1577  169.9376 F       1  <1>        -0.2032
     19 C11       140.3542  142.7443  167.9388 C.ar    1  <1>         0.0321
     20 C12       139.7582  142.8643  159.9006 C.3     1  <1>         0.1341
     21 C13       138.8415  142.3335  158.8386 C.ar    1  <1>         0.1071
     22 N3        138.2826  143.1136  157.6858 N.ar    1  <1>        -0.2428
     23 C14       137.4184  142.1915  156.8777 C.ar    1  <1>         0.0952
     24 C15       137.4432  140.8415  157.5311 C.ar    1  <1>         0.0538
     25 S1        138.3228  140.9292  158.7430 S.2     1  <1>        -0.0689
     26 C16       136.6621  142.5555  155.6345 C.3     1  <1>         0.1834
     27 O2        135.2104  142.1995  155.5085 O.3     1  <1>        -0.3760
     28 H3        135.1154  141.2346  155.4796 H       1  <1>         0.2110
     29 N4        139.9504  145.3981  159.3591 N.3     1  <1>        -0.3194
     30 C17       140.6021  144.0739  159.6269 C.3     1  <1>         0.0917
     31 H4        140.6686  146.1035  159.1949 H       1  <1>         0.1189
     32 H5        139.3861  145.6684  160.1647 H       1  <1>         0.1189
@<TRIPOS>BOND
     1    29    30    1
     2    20    30    1
     3    20     1    1
     4     1     2   am
     5     2     3    2
     6     2     5    1
     7     5     6   ar
     8     6     7   ar
     9     7     8   ar
    10     8    11    1
    11    11    12   ar
    12    12    13   ar
    13    13    14    1
    14    13    15   ar
    15    15    16    1
    16    15    17   ar
    17    17    18    1
    18    17    19   ar
    19     8     9   ar
    20    20    21    1
    21    21    22   ar
    22    22    23   ar
    23    23    26    1
    24    26    27    1
    25    23    24   ar
    26    24    25   ar
    27     9     5   ar
    28    25    21   ar
    29    19    11   ar
    30    29    31    1
    31    29    32    1
    32     1     4    1
    33     9    10    1
    34    27    28    1
