@<TRIPOS>MOLECULE
*****
 29 33 0 0 0
SMALL
GASTEIGER

@<TRIPOS>ATOM
      1 C         141.6076  143.0183  161.8347 C.3     1  UNL1        0.0939
      2 N         140.1322  143.0742  162.0994 N.3     1  UNL1       -0.2722
      3 C         139.7735  144.0967  163.1367 C.3     1  UNL1        0.0724
      4 C         138.4957  144.5630  163.7689 C.3     1  UNL1        0.0204
      5 C         137.7251  143.5833  162.9342 C.3     1  UNL1        0.0031
      6 C         138.0839  142.5609  161.8970 C.3     1  UNL1        0.0164
      7 C         139.3617  142.0945  161.2647 C.3     1  UNL1        0.0619
      8 C         140.8101  142.4575  161.4078 C.3     1  UNL1        0.0420
      9 C         141.5806  143.4372  162.2425 C.ar    1  UNL1       -0.0248
     10 C         143.0143  143.2403  161.8478 C.ar    1  UNL1       -0.0045
     11 C         144.0892  144.0658  162.4904 C.ar    1  UNL1       -0.0003
     12 C         143.7305  145.0883  163.5277 C.ar    1  UNL1       -0.0003
     13 C         142.2968  145.2852  163.9224 C.ar    1  UNL1       -0.0046
     14 C         141.2219  144.4596  163.2798 C.ar    1  UNL1       -0.0260
     15 C         139.9440  144.9260  163.9121 C.3     1  UNL1        0.0274
     16 C         142.3820  141.7763  162.1631 C.3     1  UNL1        0.1123
     17 O         142.5451  142.2729  165.6639 O.2     1  UNL1       -0.2520
     18 C         142.0482  141.1921  164.7501 C.2     1  UNL1        0.3111
     19 N         141.9339  140.8880  163.2857 N.am    1  UNL1       -0.2606
     20 C         141.2929  139.5395  163.1410 C.3     1  UNL1        0.1169
     21 C         141.0111  139.0103  164.5158 C.3     1  UNL1        0.1212
     22 N         141.4779  140.0317  165.5104 N.am    1  UNL1       -0.2413
     23 C         141.3897  139.9133  167.0031 C.ar    1  UNL1        0.0562
     24 C         142.5916  139.4895  167.7941 C.ar    1  UNL1        0.0150
     25 C         142.5035  139.3711  169.2869 C.ar    1  UNL1        0.0021
     26 C         141.2133  139.6766  169.9885 C.ar    1  UNL1        0.0115
     27 C         140.0115  140.1004  169.1975 C.ar    1  UNL1        0.0589
     28 CL        138.7213  140.4059  169.8991 Cl      1  UNL1       -0.0822
     29 C         140.0996  140.2188  167.7047 C.ar    1  UNL1        0.0263
@<TRIPOS>BOND
     1    17    18    2
     2    18    19   am
     3    19    16    1
     4    16     1    1
     5     1     2    1
     6     2     3    1
     7     4     3    1
     8     4     5    1
     9     5     6    1
    10     7     6    1
    11     7     8    1
    12     8     9    1
    13     9    10   ar
    14    10    11   ar
    15    11    12   ar
    16    12    13   ar
    17    13    14   ar
    18    14    15    1
    19    19    20    1
    20    20    21    1
    21    21    22    1
    22    22    23    1
    23    23    24   ar
    24    24    25   ar
    25    25    26   ar
    26    26    27   ar
    27    27    28    1
    28    27    29   ar
    29    22    18   am
    30    29    23   ar
    31     7     2    1
    32    14     9   ar
    33    15     4    1
@<TRIPOS>MOLECULE
*****
 29 33 0 0 0
SMALL
GASTEIGER

@<TRIPOS>ATOM
      1 C         141.9158  138.3479  165.2430 C.3     1  UNL1        0.0939
      2 N         141.6729  139.0570  166.5422 N.3     1  UNL1       -0.2722
      3 C         140.2260  139.3933  166.7508 C.3     1  UNL1        0.0724
      4 C         139.4407  140.0754  167.8316 C.3     1  UNL1        0.0204
      5 C         140.7017  140.2818  168.6175 C.3     1  UNL1        0.0031
      6 C         142.1485  139.9454  168.4090 C.3     1  UNL1        0.0164
      7 C         142.9338  139.2633  167.3281 C.3     1  UNL1        0.0619
      8 C         142.5975  138.6351  166.0082 C.3     1  UNL1        0.0420
      9 C         141.3366  138.4287  165.2223 C.ar    1  UNL1       -0.0248
     10 C         141.7688  137.7165  163.9749 C.ar    1  UNL1       -0.0045
     11 C         140.7541  137.3407  162.9361 C.ar    1  UNL1       -0.0003
     12 C         139.3072  137.6771  163.1447 C.ar    1  UNL1       -0.0003
     13 C         138.8751  138.3893  164.3920 C.ar    1  UNL1       -0.0046
     14 C         139.8897  138.7651  165.4308 C.ar    1  UNL1       -0.0260
     15 C         139.1044  139.4472  166.5117 C.3     1  UNL1        0.0274
     16 C         142.9039  138.9017  164.2596 C.3     1  UNL1        0.1123
     17 O         140.5545  140.8987  162.5214 O.2     1  UNL1       -0.2520
     18 C         141.8671  141.1305  163.2094 C.2     1  UNL1        0.3111
     19 N         142.9208  140.3714  163.9603 N.am    1  UNL1       -0.2606
     20 C         143.9942  141.3402  164.3592 C.3     1  UNL1        0.1169
     21 C         143.6040  142.6979  163.8550 C.3     1  UNL1        0.1212
     22 N         142.2894  142.5683  163.1443 N.am    1  UNL1       -0.2413
     23 C         141.5304  143.6811  162.4845 C.ar    1  UNL1        0.0562
     24 C         140.5023  144.4505  163.2597 C.ar    1  UNL1        0.0150
     25 C         139.7433  145.5634  162.5999 C.ar    1  UNL1        0.0021
     26 C         140.0124  145.9068  161.1647 C.ar    1  UNL1        0.0115
     27 C         141.0404  145.1374  160.3895 C.ar    1  UNL1        0.0589
     28 CL        141.3095  145.4809  158.9543 Cl      1  UNL1       -0.0822
     29 C         141.7995  144.0245  161.0493 C.ar    1  UNL1        0.0263
@<TRIPOS>BOND
     1    17    18    2
     2    18    19   am
     3    19    16    1
     4    16     1    1
     5     1     2    1
     6     2     3    1
     7     4     3    1
     8     4     5    1
     9     5     6    1
    10     7     6    1
    11     7     8    1
    12     8     9    1
    13     9    10   ar
    14    10    11   ar
    15    11    12   ar
    16    12    13   ar
    17    13    14   ar
    18    14    15    1
    19    19    20    1
    20    20    21    1
    21    21    22    1
    22    22    23    1
    23    23    24   ar
    24    24    25   ar
    25    25    26   ar
    26    26    27   ar
    27    27    28    1
    28    27    29   ar
    29    22    18   am
    30    29    23   ar
    31     7     2    1
    32    14     9   ar
    33    15     4    1
@<TRIPOS>MOLECULE
*****
 29 33 0 0 0
SMALL
GASTEIGER

@<TRIPOS>ATOM
      1 C         142.0552  139.7176  166.5815 C.3     1  UNL1        0.0939
      2 N         141.0382  138.9005  165.8411 N.3     1  UNL1       -0.2722
      3 C         139.6459  139.1121  166.3573 C.3     1  UNL1        0.0724
      4 C         138.2907  138.5743  166.0045 C.3     1  UNL1        0.0204
      5 C         138.9047  137.7374  164.9216 C.3     1  UNL1        0.0031
      6 C         140.2971  137.5258  164.4054 C.3     1  UNL1        0.0164
      7 C         141.6523  138.0636  164.7583 C.3     1  UNL1        0.0619
      8 C         142.1763  139.0356  165.7734 C.3     1  UNL1        0.0420
      9 C         141.5623  139.8725  166.8563 C.ar    1  UNL1       -0.0248
     10 C         142.7123  140.6085  167.4773 C.ar    1  UNL1       -0.0045
     11 C         142.4699  141.5561  168.6146 C.ar    1  UNL1       -0.0003
     12 C         141.0775  141.7676  169.1308 C.ar    1  UNL1       -0.0003
     13 C         139.9275  141.0316  168.5098 C.ar    1  UNL1       -0.0046
     14 C         140.1699  140.0841  167.3725 C.ar    1  UNL1       -0.0260
     15 C         138.8147  139.5464  167.0197 C.3     1  UNL1        0.0274
     16 C         143.2596  140.2479  165.8615 C.3     1  UNL1        0.1123
     17 O         140.9268  141.4366  163.4795 O.2     1  UNL1       -0.2520
     18 C         142.1515  141.9803  164.1538 C.2     1  UNL1        0.3111
     19 N         143.1897  141.5695  165.1555 N.am    1  UNL1       -0.2606
     20 C         144.1458  142.7125  165.3273 C.3     1  UNL1        0.1169
     21 C         143.6985  143.8296  164.4319 C.3     1  UNL1        0.1212
     22 N         142.4659  143.3770  163.7065 N.am    1  UNL1       -0.2413
     23 C         141.6850  144.1802  162.7091 C.ar    1  UNL1        0.0562
     24 C         140.5381  145.0324  163.1654 C.ar    1  UNL1        0.0150
     25 C         139.7571  145.8357  162.1680 C.ar    1  UNL1        0.0021
     26 C         140.1232  145.7867  160.7141 C.ar    1  UNL1        0.0115
     27 C         141.2701  144.9346  160.2578 C.ar    1  UNL1        0.0589
     28 CL        141.6362  144.8856  158.8039 Cl      1  UNL1       -0.0822
     29 C         142.0511  144.1313  161.2552 C.ar    1  UNL1        0.0263
@<TRIPOS>BOND
     1    17    18    2
     2    18    19   am
     3    19    16    1
     4    16     1    1
     5     1     2    1
     6     2     3    1
     7     4     3    1
     8     4     5    1
     9     5     6    1
    10     7     6    1
    11     7     8    1
    12     8     9    1
    13     9    10   ar
    14    10    11   ar
    15    11    12   ar
    16    12    13   ar
    17    13    14   ar
    18    14    15    1
    19    19    20    1
    20    20    21    1
    21    21    22    1
    22    22    23    1
    23    23    24   ar
    24    24    25   ar
    25    25    26   ar
    26    26    27   ar
    27    27    28    1
    28    27    29   ar
    29    22    18   am
    30    29    23   ar
    31     7     2    1
    32    14     9   ar
    33    15     4    1
@<TRIPOS>MOLECULE
*****
 29 33 0 0 0
SMALL
GASTEIGER

@<TRIPOS>ATOM
      1 C         142.3241  139.7262  166.0275 C.3     1  UNL1        0.0939
      2 N         140.8780  139.4672  166.3305 N.3     1  UNL1       -0.2722
      3 C         140.1956  138.6857  165.2472 C.3     1  UNL1        0.0724
      4 C         138.8061  138.1638  165.0303 C.3     1  UNL1        0.0204
      5 C         138.3817  138.7470  166.3456 C.3     1  UNL1        0.0031
      6 C         139.0642  139.5285  167.4289 C.3     1  UNL1        0.0164
      7 C         140.4537  140.0504  167.6458 C.3     1  UNL1        0.0619
      8 C         141.7362  140.0071  166.8691 C.3     1  UNL1        0.0420
      9 C         142.1606  139.4238  165.5538 C.ar    1  UNL1       -0.0248
     10 C         143.6125  139.7770  165.4229 C.ar    1  UNL1       -0.0045
     11 C         144.3819  139.3487  164.2087 C.ar    1  UNL1       -0.0003
     12 C         143.6995  138.5673  163.1253 C.ar    1  UNL1       -0.0003
     13 C         142.2476  138.2141  163.2563 C.ar    1  UNL1       -0.0046
     14 C         141.4781  138.6424  164.4705 C.ar    1  UNL1       -0.0260
     15 C         140.0886  138.1204  164.2537 C.3     1  UNL1        0.0274
     16 C         142.9552  141.0241  166.4362 C.3     1  UNL1        0.1123
     17 O         140.5950  142.0941  164.0251 O.2     1  UNL1       -0.2520
     18 C         141.9545  142.5404  164.4754 C.2     1  UNL1        0.3111
     19 N         143.0171  142.1663  165.4659 N.am    1  UNL1       -0.2606
     20 C         144.1524  143.1350  165.3156 C.3     1  UNL1        0.1169
     21 C         143.7916  144.1077  164.2323 C.3     1  UNL1        0.1212
     22 N         142.4330  143.7402  163.7130 N.am    1  UNL1       -0.2413
     23 C         141.6847  144.4482  162.6229 C.ar    1  UNL1        0.0562
     24 C         140.6112  145.4367  162.9698 C.ar    1  UNL1        0.0150
     25 C         139.8628  146.1448  161.8795 C.ar    1  UNL1        0.0021
     26 C         140.1881  145.8643  160.4423 C.ar    1  UNL1        0.0115
     27 C         141.2616  144.8759  160.0954 C.ar    1  UNL1        0.0589
     28 CL        141.5869  144.5954  158.6581 Cl      1  UNL1       -0.0822
     29 C         142.0100  144.1678  161.1856 C.ar    1  UNL1        0.0263
@<TRIPOS>BOND
     1    17    18    2
     2    18    19   am
     3    19    16    1
     4    16     1    1
     5     1     2    1
     6     2     3    1
     7     4     3    1
     8     4     5    1
     9     5     6    1
    10     7     6    1
    11     7     8    1
    12     8     9    1
    13     9    10   ar
    14    10    11   ar
    15    11    12   ar
    16    12    13   ar
    17    13    14   ar
    18    14    15    1
    19    19    20    1
    20    20    21    1
    21    21    22    1
    22    22    23    1
    23    23    24   ar
    24    24    25   ar
    25    25    26   ar
    26    26    27   ar
    27    27    28    1
    28    27    29   ar
    29    22    18   am
    30    29    23   ar
    31     7     2    1
    32    14     9   ar
    33    15     4    1
@<TRIPOS>MOLECULE
*****
 29 33 0 0 0
SMALL
GASTEIGER

@<TRIPOS>ATOM
      1 C         143.7986  139.2370  162.6483 C.3     1  UNL1        0.0939
      2 N         144.3073  140.6103  162.9728 N.3     1  UNL1       -0.2722
      3 C         143.8175  141.6472  162.0060 C.3     1  UNL1        0.0724
      4 C         144.0040  143.1279  161.8539 C.3     1  UNL1        0.0204
      5 C         144.8833  143.1419  163.0692 C.3     1  UNL1        0.0031
      6 C         145.3731  142.1050  164.0360 C.3     1  UNL1        0.0164
      7 C         145.1866  140.6243  164.1881 C.3     1  UNL1        0.0619
      8 C         144.4330  139.5675  163.4363 C.3     1  UNL1        0.0420
      9 C         143.5538  139.5534  162.2211 C.ar    1  UNL1       -0.0248
     10 C         143.1461  138.1197  162.0535 C.ar    1  UNL1       -0.0045
     11 C         142.2486  137.7229  160.9190 C.ar    1  UNL1       -0.0003
     12 C         141.7588  138.7598  159.9522 C.ar    1  UNL1       -0.0003
     13 C         142.1665  140.1936  160.1198 C.ar    1  UNL1       -0.0046
     14 C         143.0640  140.5904  161.2542 C.ar    1  UNL1       -0.0260
     15 C         143.2505  142.0710  161.1021 C.3     1  UNL1        0.0274
     16 C         142.9402  138.5026  163.6352 C.3     1  UNL1        0.1123
     17 O         142.7788  139.3421  167.0699 O.2     1  UNL1       -0.2520
     18 C         141.9051  139.5461  165.8678 C.2     1  UNL1        0.3111
     19 N         141.8799  139.2378  164.4000 N.am    1  UNL1       -0.2606
     20 C         140.6080  139.7938  163.8314 C.3     1  UNL1        0.1169
     21 C         139.8472  140.4457  164.9477 C.3     1  UNL1        0.1212
     22 N         140.6489  140.2926  166.2063 N.am    1  UNL1       -0.2413
     23 C         140.2622  140.7974  167.5648 C.ar    1  UNL1        0.0562
     24 C         139.4524  139.9320  168.4840 C.ar    1  UNL1        0.0150
     25 C         139.0656  140.4368  169.8426 C.ar    1  UNL1        0.0021
     26 C         139.4889  141.8072  170.2818 C.ar    1  UNL1        0.0115
     27 C         140.2987  142.6727  169.3626 C.ar    1  UNL1        0.0589
     28 CL        140.7219  144.0431  169.8019 Cl      1  UNL1       -0.0822
     29 C         140.6854  142.1679  168.0041 C.ar    1  UNL1        0.0263
@<TRIPOS>BOND
     1    17    18    2
     2    18    19   am
     3    19    16    1
     4    16     1    1
     5     1     2    1
     6     2     3    1
     7     4     3    1
     8     4     5    1
     9     5     6    1
    10     7     6    1
    11     7     8    1
    12     8     9    1
    13     9    10   ar
    14    10    11   ar
    15    11    12   ar
    16    12    13   ar
    17    13    14   ar
    18    14    15    1
    19    19    20    1
    20    20    21    1
    21    21    22    1
    22    22    23    1
    23    23    24   ar
    24    24    25   ar
    25    25    26   ar
    26    26    27   ar
    27    27    28    1
    28    27    29   ar
    29    22    18   am
    30    29    23   ar
    31     7     2    1
    32    14     9   ar
    33    15     4    1
@<TRIPOS>MOLECULE
*****
 29 33 0 0 0
SMALL
GASTEIGER

@<TRIPOS>ATOM
      1 C         141.0814  141.9410  161.7274 C.3     1  UNL1        0.0939
      2 N         142.2856  142.7417  162.1260 N.3     1  UNL1       -0.2722
      3 C         141.9217  144.0811  162.6947 C.3     1  UNL1        0.0724
      4 C         142.6926  145.2488  163.2353 C.3     1  UNL1        0.0204
      5 C         143.9782  144.5222  162.9717 C.3     1  UNL1        0.0031
      6 C         144.3420  143.1827  162.4030 C.3     1  UNL1        0.0164
      7 C         143.5711  142.0150  161.8623 C.3     1  UNL1        0.0619
      8 C         142.1170  141.7032  161.6664 C.3     1  UNL1        0.0420
      9 C         140.8315  142.4298  161.9301 C.ar    1  UNL1       -0.0248
     10 C         139.7542  141.4900  161.4761 C.ar    1  UNL1       -0.0045
     11 C         138.3130  141.8897  161.5908 C.ar    1  UNL1       -0.0003
     12 C         137.9491  143.2291  162.1596 C.ar    1  UNL1       -0.0003
     13 C         139.0264  144.1689  162.6135 C.ar    1  UNL1       -0.0046
     14 C         140.4676  143.7693  162.4988 C.ar    1  UNL1       -0.0260
     15 C         141.2385  144.9370  163.0395 C.3     1  UNL1        0.0274
     16 C         140.7902  140.6357  162.4067 C.3     1  UNL1        0.1123
     17 O         139.0907  142.0127  165.1896 O.2     1  UNL1       -0.2520
     18 C         140.2708  141.1095  164.9857 C.2     1  UNL1        0.3111
     19 N         141.0564  140.4784  163.8745 N.am    1  UNL1       -0.2606
     20 C         142.1548  139.6623  164.4889 C.3     1  UNL1        0.1169
     21 C         142.0482  139.7890  165.9797 C.3     1  UNL1        0.1212
     22 N         140.8837  140.6835  166.2867 N.am    1  UNL1       -0.2413
     23 C         140.4147  141.0819  167.6546 C.ar    1  UNL1        0.0562
     24 C         139.6644  140.1007  168.5055 C.ar    1  UNL1        0.0150
     25 C         139.1953  140.4991  169.8735 C.ar    1  UNL1        0.0021
     26 C         139.4767  141.8789  170.3905 C.ar    1  UNL1        0.0115
     27 C         140.2270  142.8600  169.5395 C.ar    1  UNL1        0.0589
     28 CL        140.5084  144.2398  170.0565 Cl      1  UNL1       -0.0822
     29 C         140.6961  142.4616  168.1716 C.ar    1  UNL1        0.0263
@<TRIPOS>BOND
     1    17    18    2
     2    18    19   am
     3    19    16    1
     4    16     1    1
     5     1     2    1
     6     2     3    1
     7     4     3    1
     8     4     5    1
     9     5     6    1
    10     7     6    1
    11     7     8    1
    12     8     9    1
    13     9    10   ar
    14    10    11   ar
    15    11    12   ar
    16    12    13   ar
    17    13    14   ar
    18    14    15    1
    19    19    20    1
    20    20    21    1
    21    21    22    1
    22    22    23    1
    23    23    24   ar
    24    24    25   ar
    25    25    26   ar
    26    26    27   ar
    27    27    28    1
    28    27    29   ar
    29    22    18   am
    30    29    23   ar
    31     7     2    1
    32    14     9   ar
    33    15     4    1
@<TRIPOS>MOLECULE
*****
 29 33 0 0 0
SMALL
GASTEIGER

@<TRIPOS>ATOM
      1 C         142.5933  141.6307  162.2874 C.3     1  UNL1        0.0939
      2 N         141.8783  142.9463  162.3761 N.3     1  UNL1       -0.2722
      3 C         142.6222  143.9490  163.2075 C.3     1  UNL1        0.0724
      4 C         142.3831  145.3713  163.6197 C.3     1  UNL1        0.0204
      5 C         141.0920  145.3756  162.8561 C.3     1  UNL1        0.0031
      6 C         140.3481  144.3730  162.0247 C.3     1  UNL1        0.0164
      7 C         140.5872  142.9506  161.6124 C.3     1  UNL1        0.0619
      8 C         141.6692  141.9419  161.8609 C.3     1  UNL1        0.0420
      9 C         142.9603  141.9376  162.6245 C.ar    1  UNL1       -0.0248
     10 C         143.5254  140.5627  162.4240 C.ar    1  UNL1       -0.0045
     11 C         144.8343  140.1904  163.0548 C.ar    1  UNL1       -0.0003
     12 C         145.5782  141.1931  163.8863 C.ar    1  UNL1       -0.0003
     13 C         145.0131  142.5680  164.0868 C.ar    1  UNL1       -0.0046
     14 C         143.7042  142.9403  163.4560 C.ar    1  UNL1       -0.0260
     15 C         143.4651  144.3626  163.8682 C.3     1  UNL1        0.0274
     16 C         141.9964  140.4086  162.9201 C.3     1  UNL1        0.1123
     17 O         142.7198  141.3170  166.2638 O.2     1  UNL1       -0.2520
     18 C         141.4909  140.9402  165.4906 C.2     1  UNL1        0.3111
     19 N         141.0829  140.5460  164.1019 N.am    1  UNL1       -0.2606
     20 C         139.6010  140.3135  164.1027 C.3     1  UNL1        0.1169
     21 C         139.0932  140.5638  165.4916 C.3     1  UNL1        0.1212
     22 N         140.2612  140.9512  166.3495 N.am    1  UNL1       -0.2413
     23 C         140.2087  141.2901  167.8097 C.ar    1  UNL1        0.0562
     24 C         140.0067  140.2044  168.8248 C.ar    1  UNL1        0.0150
     25 C         139.9541  140.5433  170.2851 C.ar    1  UNL1        0.0021
     26 C         140.1036  141.9679  170.7302 C.ar    1  UNL1        0.0115
     27 C         140.3057  143.0536  169.7151 C.ar    1  UNL1        0.0589
     28 CL        140.4551  144.4783  170.1602 Cl      1  UNL1       -0.0822
     29 C         140.3582  142.7147  168.2548 C.ar    1  UNL1        0.0263
@<TRIPOS>BOND
     1    17    18    2
     2    18    19   am
     3    19    16    1
     4    16     1    1
     5     1     2    1
     6     2     3    1
     7     4     3    1
     8     4     5    1
     9     5     6    1
    10     7     6    1
    11     7     8    1
    12     8     9    1
    13     9    10   ar
    14    10    11   ar
    15    11    12   ar
    16    12    13   ar
    17    13    14   ar
    18    14    15    1
    19    19    20    1
    20    20    21    1
    21    21    22    1
    22    22    23    1
    23    23    24   ar
    24    24    25   ar
    25    25    26   ar
    26    26    27   ar
    27    27    28    1
    28    27    29   ar
    29    22    18   am
    30    29    23   ar
    31     7     2    1
    32    14     9   ar
    33    15     4    1
@<TRIPOS>MOLECULE
*****
 29 33 0 0 0
SMALL
GASTEIGER

@<TRIPOS>ATOM
      1 C         140.0604  137.8939  164.4085 C.3     1  UNL1        0.0939
      2 N         141.4288  138.3046  163.9517 N.3     1  UNL1       -0.2722
      3 C         142.0465  139.3380  164.8464 C.3     1  UNL1        0.0724
      4 C         143.3497  140.0805  164.8675 C.3     1  UNL1        0.0204
      5 C         143.7794  139.3615  163.6230 C.3     1  UNL1        0.0031
      6 C         143.1617  138.3281  162.7283 C.3     1  UNL1        0.0164
      7 C         141.8584  137.5856  162.7073 C.3     1  UNL1        0.0619
      8 C         140.6331  137.5690  163.5723 C.3     1  UNL1        0.0420
      9 C         140.2034  138.2880  164.8167 C.ar    1  UNL1       -0.0248
     10 C         138.8335  137.7570  165.1185 C.ar    1  UNL1       -0.0045
     11 C         138.0812  138.2593  166.3150 C.ar    1  UNL1       -0.0003
     12 C         138.6989  139.2927  167.2097 C.ar    1  UNL1       -0.0003
     13 C         140.0688  139.8237  166.9080 C.ar    1  UNL1       -0.0046
     14 C         140.8211  139.3214  165.7115 C.ar    1  UNL1       -0.0260
     15 C         142.1244  140.0639  165.7325 C.3     1  UNL1        0.0274
     16 C         138.8752  138.1093  163.5146 C.3     1  UNL1        0.1123
     17 O         140.0925  139.4976  160.4947 O.2     1  UNL1       -0.2520
     18 C         139.1985  139.9555  161.6088 C.2     1  UNL1        0.3111
     19 N         138.6309  139.4579  162.9050 N.am    1  UNL1       -0.2606
     20 C         137.7761  140.5458  163.4846 C.3     1  UNL1        0.1169
     21 C         137.8154  141.7156  162.5467 C.3     1  UNL1        0.1212
     22 N         138.6945  141.3508  161.3872 N.am    1  UNL1       -0.2413
     23 C         139.0136  142.2274  160.2127 C.ar    1  UNL1        0.0562
     24 C         138.3659  141.9675  158.8850 C.ar    1  UNL1        0.0150
     25 C         138.6850  142.8442  157.7104 C.ar    1  UNL1        0.0021
     26 C         139.6518  143.9808  157.8636 C.ar    1  UNL1        0.0115
     27 C         140.2994  144.2407  159.1913 C.ar    1  UNL1        0.0589
     28 CL        141.2662  145.3774  159.3446 Cl      1  UNL1       -0.0822
     29 C         139.9804  143.3641  160.3659 C.ar    1  UNL1        0.0263
@<TRIPOS>BOND
     1    17    18    2
     2    18    19   am
     3    19    16    1
     4    16     1    1
     5     1     2    1
     6     2     3    1
     7     4     3    1
     8     4     5    1
     9     5     6    1
    10     7     6    1
    11     7     8    1
    12     8     9    1
    13     9    10   ar
    14    10    11   ar
    15    11    12   ar
    16    12    13   ar
    17    13    14   ar
    18    14    15    1
    19    19    20    1
    20    20    21    1
    21    21    22    1
    22    22    23    1
    23    23    24   ar
    24    24    25   ar
    25    25    26   ar
    26    26    27   ar
    27    27    28    1
    28    27    29   ar
    29    22    18   am
    30    29    23   ar
    31     7     2    1
    32    14     9   ar
    33    15     4    1
@<TRIPOS>MOLECULE
*****
 29 33 0 0 0
SMALL
GASTEIGER

@<TRIPOS>ATOM
      1 C         141.9668  137.9487  162.4338 C.3     1  UNL1        0.0939
      2 N         140.4669  137.9584  162.4380 N.3     1  UNL1       -0.2722
      3 C         139.8933  138.5623  161.1905 C.3     1  UNL1        0.0724
      4 C         138.5076  138.8199  160.6769 C.3     1  UNL1        0.0204
      5 C         137.9332  138.2234  161.9277 C.3     1  UNL1        0.0031
      6 C         138.5067  137.6195  163.1752 C.3     1  UNL1        0.0164
      7 C         139.8924  137.3619  163.6888 C.3     1  UNL1        0.0619
      8 C         141.2784  137.6016  163.1675 C.3     1  UNL1        0.0420
      9 C         141.8528  138.1980  161.9168 C.ar    1  UNL1       -0.0248
     10 C         143.3399  138.1036  162.0891 C.ar    1  UNL1       -0.0045
     11 C         144.2533  138.6130  161.0140 C.ar    1  UNL1       -0.0003
     12 C         143.6797  139.2169  159.7664 C.ar    1  UNL1       -0.0003
     13 C         142.1927  139.3114  159.5941 C.ar    1  UNL1       -0.0046
     14 C         141.2792  138.8019  160.6692 C.ar    1  UNL1       -0.0260
     15 C         139.8936  139.0595  160.1557 C.3     1  UNL1        0.0274
     16 C         142.7258  139.0502  163.1125 C.3     1  UNL1        0.1123
     17 O         140.6037  141.1082  165.0593 O.2     1  UNL1       -0.2520
     18 C         141.6977  140.1200  165.3360 C.2     1  UNL1        0.3111
     19 N         142.6401  139.2134  164.6011 N.am    1  UNL1       -0.2606
     20 C         143.4818  138.4985  165.6164 C.3     1  UNL1        0.1169
     21 C         143.0596  138.9633  166.9786 C.3     1  UNL1        0.1212
     22 N         141.9569  139.9655  166.8053 N.am    1  UNL1       -0.2413
     23 C         141.2395  140.6865  167.9077 C.ar    1  UNL1        0.0562
     24 C         141.6968  142.0498  168.3341 C.ar    1  UNL1        0.0150
     25 C         140.9794  142.7709  169.4367 C.ar    1  UNL1        0.0021
     26 C         139.8046  142.1283  170.1127 C.ar    1  UNL1        0.0115
     27 C         139.3473  140.7649  169.6863 C.ar    1  UNL1        0.0589
     28 CL        138.1725  140.1223  170.3624 Cl      1  UNL1       -0.0822
     29 C         140.0647  140.0439  168.5838 C.ar    1  UNL1        0.0263
@<TRIPOS>BOND
     1    17    18    2
     2    18    19   am
     3    19    16    1
     4    16     1    1
     5     1     2    1
     6     2     3    1
     7     4     3    1
     8     4     5    1
     9     5     6    1
    10     7     6    1
    11     7     8    1
    12     8     9    1
    13     9    10   ar
    14    10    11   ar
    15    11    12   ar
    16    12    13   ar
    17    13    14   ar
    18    14    15    1
    19    19    20    1
    20    20    21    1
    21    21    22    1
    22    22    23    1
    23    23    24   ar
    24    24    25   ar
    25    25    26   ar
    26    26    27   ar
    27    27    28    1
    28    27    29   ar
    29    22    18   am
    30    29    23   ar
    31     7     2    1
    32    14     9   ar
    33    15     4    1
