@<TRIPOS>MOLECULE
*****
 34 37 0 0 0
SMALL
GASTEIGER

@<TRIPOS>ATOM
      1 O         137.7762  143.0916  161.2796 O.3     1  UNL1       -0.4727
      2 C         139.3624  144.5306  162.7503 C.ar    1  UNL1        0.0686
      3 C         139.7536  145.0721  164.0933 C.ar    1  UNL1        0.0059
      4 C         138.9499  144.7161  165.3086 C.ar    1  UNL1        0.0003
      5 C         137.7548  143.8185  165.1810 C.ar    1  UNL1        0.0031
      6 C         137.3636  143.2770  163.8380 C.ar    1  UNL1        0.0370
      7 C         138.1674  143.6331  162.6226 C.ar    1  UNL1        0.1413
      8 O         139.6822  145.9579  160.6031 O.2     1  UNL1       -0.2912
      9 C         140.1661  144.8867  161.5349 C.2     1  UNL1        0.1763
     10 C         141.4539  144.1715  161.2513 C.3     1  UNL1        0.0739
     11 C         142.7526  144.7446  161.7359 C.3     1  UNL1        0.0345
     12 C         143.5575  144.0112  162.7675 C.ar    1  UNL1       -0.0217
     13 C         144.2705  142.7435  162.4006 C.ar    1  UNL1       -0.0043
     14 C         145.0754  142.0103  163.4322 C.ar    1  UNL1       -0.0003
     15 C         145.1674  142.5446  164.8308 C.ar    1  UNL1       -0.0000
     16 C         144.4545  143.8123  165.1977 C.ar    1  UNL1       -0.0003
     17 C         143.6496  144.5456  164.1661 C.ar    1  UNL1       -0.0043
     18 C         138.4458  141.8613  160.7429 C.3     1  UNL1        0.2358
     19 C         138.1263  140.5176  161.3282 C.3     1  UNL1        0.1700
     20 O         136.7669  139.9162  161.1275 O.3     1  UNL1       -0.3793
     21 H         136.2203  140.5208  160.6016 H       1  UNL1        0.2106
     22 C         139.1662  139.7755  162.1141 C.3     1  UNL1        0.1056
     23 N         139.6661  140.3354  163.4128 N.3     1  UNL1       -0.2705
     24 C         140.9047  141.1811  163.4377 C.3     1  UNL1        0.0725
     25 C         141.4046  141.7410  164.7364 C.3     1  UNL1        0.0217
     26 C         140.6660  141.4552  166.0102 C.3     1  UNL1        0.0251
     27 C         139.4274  140.6094  165.9853 C.3     1  UNL1        0.0217
     28 C         138.9275  140.0495  164.6866 C.3     1  UNL1        0.0725
     29 C         141.1659  142.0151  167.3089 C.ar    1  UNL1       -0.0224
     30 C         142.5892  141.7889  167.7248 C.ar    1  UNL1       -0.0043
     31 C         143.0891  142.3488  169.0234 C.ar    1  UNL1       -0.0003
     32 C         142.1657  143.1349  169.9062 C.ar    1  UNL1       -0.0000
     33 C         140.7424  143.3611  169.4904 C.ar    1  UNL1       -0.0003
     34 C         140.2425  142.8012  168.1917 C.ar    1  UNL1       -0.0043
@<TRIPOS>BOND
     1     8     9    2
     2     9    10    1
     3    10    11    1
     4    11    12    1
     5    12    13   ar
     6    13    14   ar
     7    14    15   ar
     8    15    16   ar
     9    16    17   ar
    10     9     2    1
    11     2     3   ar
    12     3     4   ar
    13     4     5   ar
    14     5     6   ar
    15     6     7   ar
    16     7     1    1
    17     1    18    1
    18    18    19    1
    19    19    20    1
    20    19    22    1
    21    22    23    1
    22    23    24    1
    23    24    25    1
    24    25    26    1
    25    26    29    1
    26    29    30   ar
    27    30    31   ar
    28    31    32   ar
    29    32    33   ar
    30    33    34   ar
    31    26    27    1
    32    27    28    1
    33    17    12   ar
    34     7     2   ar
    35    28    23    1
    36    34    29   ar
    37    20    21    1
@<TRIPOS>MOLECULE
*****
 34 37 0 0 0
SMALL
GASTEIGER

@<TRIPOS>ATOM
      1 O         141.2088  145.8306  162.9325 O.3     1  UNL1       -0.4727
      2 C         141.9485  143.8004  164.3752 C.ar    1  UNL1        0.0686
      3 C         141.6401  142.7653  165.4161 C.ar    1  UNL1        0.0059
      4 C         140.2837  142.7253  166.0552 C.ar    1  UNL1        0.0003
      5 C         139.2356  143.7203  165.6534 C.ar    1  UNL1        0.0031
      6 C         139.5440  144.7554  164.6125 C.ar    1  UNL1        0.0370
      7 C         140.9005  144.7955  163.9734 C.ar    1  UNL1        0.1413
      8 O         143.4615  144.3700  162.3414 O.2     1  UNL1       -0.2912
      9 C         143.3049  143.8405  163.7360 C.2     1  UNL1        0.1763
     10 C         144.5048  143.3510  164.4916 C.3     1  UNL1        0.0739
     11 C         145.2503  142.1408  164.0126 C.3     1  UNL1        0.0345
     12 C         144.5060  140.8766  163.6993 C.ar    1  UNL1       -0.0217
     13 C         144.4335  140.3796  162.2859 C.ar    1  UNL1       -0.0043
     14 C         143.6892  139.1155  161.9728 C.ar    1  UNL1       -0.0003
     15 C         143.0175  138.3485  163.0730 C.ar    1  UNL1       -0.0000
     16 C         143.0900  138.8455  164.4863 C.ar    1  UNL1       -0.0003
     17 C         143.8343  140.1096  164.7995 C.ar    1  UNL1       -0.0043
     18 C         140.3555  145.9355  161.7032 C.3     1  UNL1        0.2358
     19 C         140.6976  145.1342  160.4822 C.3     1  UNL1        0.1700
     20 O         141.8658  145.5299  159.6285 O.3     1  UNL1       -0.3793
     21 H         142.2880  146.3186  160.0036 H       1  UNL1        0.2106
     22 C         139.8715  143.9373  160.1148 C.3     1  UNL1        0.1056
     23 N         139.6107  142.8655  161.1312 N.3     1  UNL1       -0.2705
     24 C         140.7133  141.9336  161.5383 C.3     1  UNL1        0.0725
     25 C         140.4524  140.8618  162.5548 C.3     1  UNL1        0.0217
     26 C         139.0889  140.7218  163.1641 C.3     1  UNL1        0.0251
     27 C         137.9863  141.6537  162.7570 C.3     1  UNL1        0.0217
     28 C         138.2472  142.7255  161.7406 C.3     1  UNL1        0.0725
     29 C         138.8281  139.6500  164.1805 C.ar    1  UNL1       -0.0224
     30 C         139.2469  138.2364  163.9042 C.ar    1  UNL1       -0.0043
     31 C         138.9861  137.1646  164.9206 C.ar    1  UNL1       -0.0003
     32 C         138.3063  137.5063  166.2133 C.ar    1  UNL1       -0.0000
     33 C         137.8874  138.9198  166.4896 C.ar    1  UNL1       -0.0003
     34 C         138.1483  139.9917  165.4732 C.ar    1  UNL1       -0.0043
@<TRIPOS>BOND
     1     8     9    2
     2     9    10    1
     3    10    11    1
     4    11    12    1
     5    12    13   ar
     6    13    14   ar
     7    14    15   ar
     8    15    16   ar
     9    16    17   ar
    10     9     2    1
    11     2     3   ar
    12     3     4   ar
    13     4     5   ar
    14     5     6   ar
    15     6     7   ar
    16     7     1    1
    17     1    18    1
    18    18    19    1
    19    19    20    1
    20    19    22    1
    21    22    23    1
    22    23    24    1
    23    24    25    1
    24    25    26    1
    25    26    29    1
    26    29    30   ar
    27    30    31   ar
    28    31    32   ar
    29    32    33   ar
    30    33    34   ar
    31    26    27    1
    32    27    28    1
    33    17    12   ar
    34     7     2   ar
    35    28    23    1
    36    34    29   ar
    37    20    21    1
@<TRIPOS>MOLECULE
*****
 34 37 0 0 0
SMALL
GASTEIGER

@<TRIPOS>ATOM
      1 O         141.2568  138.2555  162.4920 O.3     1  UNL1       -0.4727
      2 C         143.6336  138.9841  163.2471 C.ar    1  UNL1        0.0686
      3 C         144.6500  139.1746  164.3336 C.ar    1  UNL1        0.0059
      4 C         144.3062  138.8268  165.7516 C.ar    1  UNL1        0.0003
      5 C         142.9459  138.2885  166.0832 C.ar    1  UNL1        0.0031
      6 C         141.9294  138.0981  164.9966 C.ar    1  UNL1        0.0370
      7 C         142.2733  138.4459  163.5786 C.ar    1  UNL1        0.1413
      8 O         144.2707  138.2432  160.8398 O.2     1  UNL1       -0.2912
      9 C         143.9774  139.3319  161.8291 C.2     1  UNL1        0.1763
     10 C         144.0279  140.7685  161.4003 C.3     1  UNL1        0.0739
     11 C         145.0627  141.6878  161.9782 C.3     1  UNL1        0.0345
     12 C         144.6563  142.7633  162.9417 C.ar    1  UNL1       -0.0217
     13 C         144.0015  144.0146  162.4365 C.ar    1  UNL1       -0.0043
     14 C         143.5952  145.0900  163.4000 C.ar    1  UNL1       -0.0003
     15 C         143.8437  144.9141  164.8688 C.ar    1  UNL1       -0.0000
     16 C         144.4985  143.6627  165.3740 C.ar    1  UNL1       -0.0003
     17 C         144.9048  142.5873  164.4105 C.ar    1  UNL1       -0.0043
     18 C         139.9137  137.6710  162.8155 C.3     1  UNL1        0.2358
     19 C         138.6638  138.4056  162.4309 C.3     1  UNL1        0.1700
     20 O         137.5926  137.7048  161.6487 O.3     1  UNL1       -0.3793
     21 H         137.8647  136.7900  161.4757 H       1  UNL1        0.2106
     22 C         138.4850  139.8408  162.8283 C.3     1  UNL1        0.1056
     23 N         139.1833  140.3752  164.0435 N.3     1  UNL1       -0.2705
     24 C         138.7498  139.9369  165.4110 C.3     1  UNL1        0.0725
     25 C         139.4481  140.4713  166.6263 C.3     1  UNL1        0.0217
     26 C         140.5799  141.4439  166.4741 C.3     1  UNL1        0.0251
     27 C         141.0133  141.8821  165.1066 C.3     1  UNL1        0.0217
     28 C         140.3150  141.3478  163.8913 C.3     1  UNL1        0.0725
     29 C         141.2782  141.9782  167.6893 C.ar    1  UNL1       -0.0224
     30 C         142.7136  141.6260  167.9451 C.ar    1  UNL1       -0.0043
     31 C         143.4119  142.1603  169.1604 C.ar    1  UNL1       -0.0003
     32 C         142.6748  143.0469  170.1198 C.ar    1  UNL1       -0.0000
     33 C         141.2394  143.3991  169.8640 C.ar    1  UNL1       -0.0003
     34 C         140.5411  142.8648  168.6488 C.ar    1  UNL1       -0.0043
@<TRIPOS>BOND
     1     8     9    2
     2     9    10    1
     3    10    11    1
     4    11    12    1
     5    12    13   ar
     6    13    14   ar
     7    14    15   ar
     8    15    16   ar
     9    16    17   ar
    10     9     2    1
    11     2     3   ar
    12     3     4   ar
    13     4     5   ar
    14     5     6   ar
    15     6     7   ar
    16     7     1    1
    17     1    18    1
    18    18    19    1
    19    19    20    1
    20    19    22    1
    21    22    23    1
    22    23    24    1
    23    24    25    1
    24    25    26    1
    25    26    29    1
    26    29    30   ar
    27    30    31   ar
    28    31    32   ar
    29    32    33   ar
    30    33    34   ar
    31    26    27    1
    32    27    28    1
    33    17    12   ar
    34     7     2   ar
    35    28    23    1
    36    34    29   ar
    37    20    21    1
@<TRIPOS>MOLECULE
*****
 34 37 0 0 0
SMALL
GASTEIGER

@<TRIPOS>ATOM
      1 O         140.1793  137.6572  161.9248 O.3     1  UNL1       -0.4727
      2 C         138.6408  139.4720  162.9686 C.ar    1  UNL1        0.0686
      3 C         137.9785  140.0795  164.1695 C.ar    1  UNL1        0.0059
      4 C         138.1925  139.4798  165.5276 C.ar    1  UNL1        0.0003
      5 C         139.0687  138.2725  165.6848 C.ar    1  UNL1        0.0031
      6 C         139.7310  137.6649  164.4839 C.ar    1  UNL1        0.0370
      7 C         139.5170  138.2647  163.1257 C.ar    1  UNL1        0.1413
      8 O         137.3333  139.5522  160.7249 O.2     1  UNL1       -0.2912
      9 C         138.4269  140.0717  161.6104 C.2     1  UNL1        0.1763
     10 C         139.3067  141.1910  161.1378 C.3     1  UNL1        0.0739
     11 C         138.8205  142.6082  161.2087 C.3     1  UNL1        0.0345
     12 C         138.8819  143.3581  162.5064 C.ar    1  UNL1       -0.0217
     13 C         137.6802  143.4057  163.4028 C.ar    1  UNL1       -0.0043
     14 C         137.7416  144.1556  164.7004 C.ar    1  UNL1       -0.0003
     15 C         139.0049  144.8578  165.1017 C.ar    1  UNL1       -0.0000
     16 C         140.2066  144.8103  164.2054 C.ar    1  UNL1       -0.0003
     17 C         140.1452  144.0604  162.9077 C.ar    1  UNL1       -0.0043
     18 C         141.6754  137.5716  161.8564 C.3     1  UNL1        0.2358
     19 C         142.4922  138.8211  161.7099 C.3     1  UNL1        0.1700
     20 O         142.4402  139.6057  160.4325 O.3     1  UNL1       -0.3793
     21 H         141.8357  139.1713  159.8106 H       1  UNL1        0.2106
     22 C         143.3609  139.2861  162.8409 C.3     1  UNL1        0.1056
     23 N         142.7362  139.8025  164.1031 N.3     1  UNL1       -0.2705
     24 C         141.8280  140.9953  164.0569 C.3     1  UNL1        0.0725
     25 C         141.2034  141.5117  165.3192 C.3     1  UNL1        0.0217
     26 C         141.4870  140.8352  166.6275 C.3     1  UNL1        0.0251
     27 C         142.3952  139.6424  166.6737 C.3     1  UNL1        0.0217
     28 C         143.0198  139.1260  165.4115 C.3     1  UNL1        0.0725
     29 C         140.8623  141.3516  167.8898 C.ar    1  UNL1       -0.0224
     30 C         141.0825  142.7753  168.3076 C.ar    1  UNL1       -0.0043
     31 C         140.4579  143.2916  169.5698 C.ar    1  UNL1       -0.0003
     32 C         139.6131  142.3843  170.4142 C.ar    1  UNL1       -0.0000
     33 C         139.3929  140.9607  169.9964 C.ar    1  UNL1       -0.0003
     34 C         140.0175  140.4443  168.7341 C.ar    1  UNL1       -0.0043
@<TRIPOS>BOND
     1     8     9    2
     2     9    10    1
     3    10    11    1
     4    11    12    1
     5    12    13   ar
     6    13    14   ar
     7    14    15   ar
     8    15    16   ar
     9    16    17   ar
    10     9     2    1
    11     2     3   ar
    12     3     4   ar
    13     4     5   ar
    14     5     6   ar
    15     6     7   ar
    16     7     1    1
    17     1    18    1
    18    18    19    1
    19    19    20    1
    20    19    22    1
    21    22    23    1
    22    23    24    1
    23    24    25    1
    24    25    26    1
    25    26    29    1
    26    29    30   ar
    27    30    31   ar
    28    31    32   ar
    29    32    33   ar
    30    33    34   ar
    31    26    27    1
    32    27    28    1
    33    17    12   ar
    34     7     2   ar
    35    28    23    1
    36    34    29   ar
    37    20    21    1
@<TRIPOS>MOLECULE
*****
 34 37 0 0 0
SMALL
GASTEIGER

@<TRIPOS>ATOM
      1 O         141.0513  143.0855  161.8213 O.3     1  UNL1       -0.4727
      2 C         138.5651  143.1445  162.5733 C.ar    1  UNL1        0.0686
      3 C         137.5149  143.5708  163.5557 C.ar    1  UNL1        0.0059
      4 C         137.9006  144.3645  164.7687 C.ar    1  UNL1        0.0003
      5 C         139.3365  144.7318  164.9992 C.ar    1  UNL1        0.0031
      6 C         140.3868  144.3055  164.0168 C.ar    1  UNL1        0.0370
      7 C         140.0010  143.5118  162.8037 C.ar    1  UNL1        0.1413
      8 O         138.1636  143.0043  160.0102 O.2     1  UNL1       -0.2912
      9 C         138.1794  142.3508  161.3603 C.2     1  UNL1        0.1763
     10 C         137.8096  140.9035  161.4974 C.3     1  UNL1        0.0739
     11 C         138.8202  139.9155  161.9997 C.3     1  UNL1        0.0345
     12 C         138.7056  139.3670  163.3911 C.ar    1  UNL1       -0.0217
     13 C         138.1762  140.2314  164.4968 C.ar    1  UNL1       -0.0043
     14 C         138.0616  139.6829  165.8882 C.ar    1  UNL1       -0.0003
     15 C         138.4764  138.2700  166.1739 C.ar    1  UNL1       -0.0000
     16 C         139.0058  137.4056  165.0683 C.ar    1  UNL1       -0.0003
     17 C         139.1204  137.9541  163.6769 C.ar    1  UNL1       -0.0043
     18 C         142.1874  144.0074  161.4907 C.3     1  UNL1        0.2358
     19 C         143.4504  143.9610  162.2986 C.3     1  UNL1        0.1700
     20 O         144.2576  145.2090  162.5009 O.3     1  UNL1       -0.3793
     21 H         143.8266  145.9500  162.0470 H       1  UNL1        0.2106
     22 C         143.9062  142.6666  162.9041 C.3     1  UNL1        0.1056
     23 N         143.2968  142.1828  164.1866 N.3     1  UNL1       -0.2705
     24 C         142.3149  141.0491  164.1696 C.3     1  UNL1        0.0725
     25 C         141.7056  140.5653  165.4520 C.3     1  UNL1        0.0217
     26 C         142.0781  141.2154  166.7515 C.3     1  UNL1        0.0251
     27 C         143.0601  142.3491  166.7685 C.3     1  UNL1        0.0217
     28 C         143.6694  142.8329  165.4860 C.3     1  UNL1        0.0725
     29 C         141.4688  140.7316  168.0339 C.ar    1  UNL1       -0.0224
     30 C         140.0810  141.1569  168.4121 C.ar    1  UNL1       -0.0043
     31 C         139.4716  140.6731  169.6946 C.ar    1  UNL1       -0.0003
     32 C         140.2501  139.7642  170.5988 C.ar    1  UNL1       -0.0000
     33 C         141.6379  139.3389  170.2206 C.ar    1  UNL1       -0.0003
     34 C         142.2472  139.8227  168.9382 C.ar    1  UNL1       -0.0043
@<TRIPOS>BOND
     1     8     9    2
     2     9    10    1
     3    10    11    1
     4    11    12    1
     5    12    13   ar
     6    13    14   ar
     7    14    15   ar
     8    15    16   ar
     9    16    17   ar
    10     9     2    1
    11     2     3   ar
    12     3     4   ar
    13     4     5   ar
    14     5     6   ar
    15     6     7   ar
    16     7     1    1
    17     1    18    1
    18    18    19    1
    19    19    20    1
    20    19    22    1
    21    22    23    1
    22    23    24    1
    23    24    25    1
    24    25    26    1
    25    26    29    1
    26    29    30   ar
    27    30    31   ar
    28    31    32   ar
    29    32    33   ar
    30    33    34   ar
    31    26    27    1
    32    27    28    1
    33    17    12   ar
    34     7     2   ar
    35    28    23    1
    36    34    29   ar
    37    20    21    1
@<TRIPOS>MOLECULE
*****
 34 37 0 0 0
SMALL
GASTEIGER

@<TRIPOS>ATOM
      1 O         144.2845  140.4510  161.7241 O.3     1  UNL1       -0.4727
      2 C         142.6200  138.9324  163.0177 C.ar    1  UNL1        0.0686
      3 C         142.2300  138.2038  164.2695 C.ar    1  UNL1        0.0059
      4 C         143.1143  138.2652  165.4795 C.ar    1  UNL1        0.0003
      5 C         144.3887  139.0553  165.4378 C.ar    1  UNL1        0.0031
      6 C         144.7788  139.7839  164.1860 C.ar    1  UNL1        0.0370
      7 C         143.8944  139.7224  162.9759 C.ar    1  UNL1        0.1413
      8 O         142.1528  138.0638  160.6141 O.2     1  UNL1       -0.2912
      9 C         141.7357  138.8710  161.8077 C.2     1  UNL1        0.1763
     10 C         140.4343  139.6167  161.7912 C.3     1  UNL1        0.0739
     11 C         139.1665  138.9216  162.1902 C.3     1  UNL1        0.0345
     12 C         138.8011  138.8019  163.6402 C.ar    1  UNL1       -0.0217
     13 C         138.4338  140.0265  164.4246 C.ar    1  UNL1       -0.0043
     14 C         138.0684  139.9068  165.8745 C.ar    1  UNL1       -0.0003
     15 C         138.0703  138.5625  166.5399 C.ar    1  UNL1       -0.0000
     16 C         138.4376  137.3379  165.7555 C.ar    1  UNL1       -0.0003
     17 C         138.8030  137.4576  164.3056 C.ar    1  UNL1       -0.0043
     18 C         144.9097  141.8117  161.8123 C.3     1  UNL1        0.2358
     19 C         144.0696  143.0377  161.6090 C.3     1  UNL1        0.1700
     20 O         143.6558  143.4423  160.2251 O.3     1  UNL1       -0.3793
     21 H         144.0123  142.8089  159.5828 H       1  UNL1        0.2106
     22 C         143.6434  143.8590  162.7895 C.3     1  UNL1        0.1056
     23 N         143.1498  143.1833  164.0344 N.3     1  UNL1       -0.2705
     24 C         143.9775  143.2174  165.2849 C.3     1  UNL1        0.0725
     25 C         143.4839  142.5417  166.5297 C.3     1  UNL1        0.0217
     26 C         142.1626  141.8318  166.5242 C.3     1  UNL1        0.0251
     27 C         141.3349  141.7976  165.2737 C.3     1  UNL1        0.0217
     28 C         141.8285  142.4734  164.0288 C.3     1  UNL1        0.0725
     29 C         141.6690  141.1560  167.7690 C.ar    1  UNL1       -0.0224
     30 C         142.5369  140.1565  168.4743 C.ar    1  UNL1       -0.0043
     31 C         142.0433  139.4807  169.7192 C.ar    1  UNL1       -0.0003
     32 C         140.6817  139.8045  170.2588 C.ar    1  UNL1       -0.0000
     33 C         139.8137  140.8041  169.5535 C.ar    1  UNL1       -0.0003
     34 C         140.3074  141.4798  168.3086 C.ar    1  UNL1       -0.0043
@<TRIPOS>BOND
     1     8     9    2
     2     9    10    1
     3    10    11    1
     4    11    12    1
     5    12    13   ar
     6    13    14   ar
     7    14    15   ar
     8    15    16   ar
     9    16    17   ar
    10     9     2    1
    11     2     3   ar
    12     3     4   ar
    13     4     5   ar
    14     5     6   ar
    15     6     7   ar
    16     7     1    1
    17     1    18    1
    18    18    19    1
    19    19    20    1
    20    19    22    1
    21    22    23    1
    22    23    24    1
    23    24    25    1
    24    25    26    1
    25    26    29    1
    26    29    30   ar
    27    30    31   ar
    28    31    32   ar
    29    32    33   ar
    30    33    34   ar
    31    26    27    1
    32    27    28    1
    33    17    12   ar
    34     7     2   ar
    35    28    23    1
    36    34    29   ar
    37    20    21    1
@<TRIPOS>MOLECULE
*****
 34 37 0 0 0
SMALL
GASTEIGER

@<TRIPOS>ATOM
      1 O         138.7766  143.5331  160.3875 O.3     1  UNL1       -0.4727
      2 C         138.3950  141.8324  162.3142 C.ar    1  UNL1        0.0686
      3 C         138.0911  141.5489  163.7554 C.ar    1  UNL1        0.0059
      4 C         137.8649  142.6825  164.7113 C.ar    1  UNL1        0.0003
      5 C         137.9426  144.0997  164.2259 C.ar    1  UNL1        0.0031
      6 C         138.2465  144.3832  162.7847 C.ar    1  UNL1        0.0370
      7 C         138.4727  143.2496  161.8288 C.ar    1  UNL1        0.1413
      8 O         139.8504  140.6764  160.4989 O.2     1  UNL1       -0.2912
      9 C         138.6212  140.6988  161.3583 C.2     1  UNL1        0.1763
     10 C         137.6182  139.5876  161.2618 C.3     1  UNL1        0.0739
     11 C         137.9880  138.2030  161.7046 C.3     1  UNL1        0.0345
     12 C         139.0709  138.0056  162.7237 C.ar    1  UNL1       -0.0217
     13 C         140.4720  137.7053  162.2806 C.ar    1  UNL1       -0.0043
     14 C         141.5548  137.5078  163.2996 C.ar    1  UNL1       -0.0003
     15 C         141.2365  137.6107  164.7618 C.ar    1  UNL1       -0.0000
     16 C         139.8353  137.9111  165.2050 C.ar    1  UNL1       -0.0003
     17 C         138.7525  138.1085  164.1859 C.ar    1  UNL1       -0.0043
     18 C         140.0121  144.2996  160.0183 C.3     1  UNL1        0.2358
     19 C         141.3586  143.6467  160.1213 C.3     1  UNL1        0.1700
     20 O         141.8152  142.6970  159.0537 O.3     1  UNL1       -0.3793
     21 H         141.1265  142.6177  158.3753 H       1  UNL1        0.2106
     22 C         142.2484  143.9434  161.2918 C.3     1  UNL1        0.1056
     23 N         142.0260  143.2431  162.5995 N.3     1  UNL1       -0.2705
     24 C         142.1115  141.7473  162.6733 C.3     1  UNL1        0.0725
     25 C         141.8891  141.0470  163.9810 C.3     1  UNL1        0.0217
     26 C         141.5812  141.8424  165.2149 C.3     1  UNL1        0.0251
     27 C         141.4957  143.3382  165.1411 C.3     1  UNL1        0.0217
     28 C         141.7181  144.0385  163.8334 C.3     1  UNL1        0.0725
     29 C         141.3588  141.1421  166.5226 C.ar    1  UNL1       -0.0224
     30 C         139.9748  141.0367  167.0911 C.ar    1  UNL1       -0.0043
     31 C         139.7524  140.3364  168.3988 C.ar    1  UNL1       -0.0003
     32 C         140.9141  139.7415  169.1381 C.ar    1  UNL1       -0.0000
     33 C         142.2981  139.8469  168.5696 C.ar    1  UNL1       -0.0003
     34 C         142.5205  140.5472  167.2619 C.ar    1  UNL1       -0.0043
@<TRIPOS>BOND
     1     8     9    2
     2     9    10    1
     3    10    11    1
     4    11    12    1
     5    12    13   ar
     6    13    14   ar
     7    14    15   ar
     8    15    16   ar
     9    16    17   ar
    10     9     2    1
    11     2     3   ar
    12     3     4   ar
    13     4     5   ar
    14     5     6   ar
    15     6     7   ar
    16     7     1    1
    17     1    18    1
    18    18    19    1
    19    19    20    1
    20    19    22    1
    21    22    23    1
    22    23    24    1
    23    24    25    1
    24    25    26    1
    25    26    29    1
    26    29    30   ar
    27    30    31   ar
    28    31    32   ar
    29    32    33   ar
    30    33    34   ar
    31    26    27    1
    32    27    28    1
    33    17    12   ar
    34     7     2   ar
    35    28    23    1
    36    34    29   ar
    37    20    21    1
@<TRIPOS>MOLECULE
*****
 34 37 0 0 0
SMALL
GASTEIGER

@<TRIPOS>ATOM
      1 O         139.6059  142.5843  159.9715 O.3     1  UNL1       -0.4727
      2 C         139.8368  140.8831  161.9215 C.ar    1  UNL1        0.0686
      3 C         139.3385  140.3187  163.2188 C.ar    1  UNL1        0.0059
      4 C         138.1111  140.8910  163.8635 C.ar    1  UNL1        0.0003
      5 C         137.3818  142.0278  163.2109 C.ar    1  UNL1        0.0031
      6 C         137.8801  142.5923  161.9135 C.ar    1  UNL1        0.0370
      7 C         139.1076  142.0199  161.2688 C.ar    1  UNL1        0.1413
      8 O         142.2160  141.2068  160.9291 O.2     1  UNL1       -0.2912
      9 C         141.0643  140.3108  161.2768 C.2     1  UNL1        0.1763
     10 C         141.1402  138.8424  160.9798 C.3     1  UNL1        0.0739
     11 C         142.1876  137.9966  161.6412 C.3     1  UNL1        0.0345
     12 C         142.6648  138.3371  163.0219 C.ar    1  UNL1       -0.0217
     13 C         143.9836  139.0261  163.2110 C.ar    1  UNL1       -0.0043
     14 C         144.4607  139.3666  164.5917 C.ar    1  UNL1       -0.0003
     15 C         143.6190  139.0180  165.7833 C.ar    1  UNL1       -0.0000
     16 C         142.3001  138.3290  165.5943 C.ar    1  UNL1       -0.0003
     17 C         141.8230  137.9886  164.2136 C.ar    1  UNL1       -0.0043
     18 C         140.0938  144.0014  159.9082 C.3     1  UNL1        0.2358
     19 C         141.2603  144.4311  160.7477 C.3     1  UNL1        0.1700
     20 O         142.6581  144.1027  160.3135 O.3     1  UNL1       -0.3793
     21 H         142.6302  143.6138  159.4762 H       1  UNL1        0.2106
     22 C         141.0291  145.1893  162.0211 C.3     1  UNL1        0.1056
     23 N         140.8341  144.4479  163.3105 N.3     1  UNL1       -0.2705
     24 C         141.8094  143.3839  163.7186 C.3     1  UNL1        0.0725
     25 C         141.6144  142.6425  165.0080 C.3     1  UNL1        0.0217
     26 C         140.4443  142.9653  165.8892 C.3     1  UNL1        0.0251
     27 C         139.4691  144.0293  165.4810 C.3     1  UNL1        0.0217
     28 C         139.6640  144.7707  164.1917 C.3     1  UNL1        0.0725
     29 C         140.2493  142.2239  167.1785 C.ar    1  UNL1       -0.0224
     30 C         140.4075  142.9403  168.4868 C.ar    1  UNL1       -0.0043
     31 C         140.2126  142.1990  169.7762 C.ar    1  UNL1       -0.0003
     32 C         139.8595  140.7413  169.7572 C.ar    1  UNL1       -0.0000
     33 C         139.7013  140.0249  168.4489 C.ar    1  UNL1       -0.0003
     34 C         139.8962  140.7663  167.1596 C.ar    1  UNL1       -0.0043
@<TRIPOS>BOND
     1     8     9    2
     2     9    10    1
     3    10    11    1
     4    11    12    1
     5    12    13   ar
     6    13    14   ar
     7    14    15   ar
     8    15    16   ar
     9    16    17   ar
    10     9     2    1
    11     2     3   ar
    12     3     4   ar
    13     4     5   ar
    14     5     6   ar
    15     6     7   ar
    16     7     1    1
    17     1    18    1
    18    18    19    1
    19    19    20    1
    20    19    22    1
    21    22    23    1
    22    23    24    1
    23    24    25    1
    24    25    26    1
    25    26    29    1
    26    29    30   ar
    27    30    31   ar
    28    31    32   ar
    29    32    33   ar
    30    33    34   ar
    31    26    27    1
    32    27    28    1
    33    17    12   ar
    34     7     2   ar
    35    28    23    1
    36    34    29   ar
    37    20    21    1
@<TRIPOS>MOLECULE
*****
 34 37 0 0 0
SMALL
GASTEIGER

@<TRIPOS>ATOM
      1 O         144.1538  139.6076  161.8317 O.3     1  UNL1       -0.4727
      2 C         141.7475  139.1985  162.7219 C.ar    1  UNL1        0.0686
      3 C         140.8164  138.9010  163.8597 C.ar    1  UNL1        0.0059
      4 C         141.3605  138.7152  165.2451 C.ar    1  UNL1        0.0003
      5 C         142.8358  138.8269  165.4928 C.ar    1  UNL1        0.0031
      6 C         143.7669  139.1243  164.3550 C.ar    1  UNL1        0.0370
      7 C         143.2227  139.3101  162.9695 C.ar    1  UNL1        0.1413
      8 O         141.3294  138.2819  160.3272 O.2     1  UNL1       -0.2912
      9 C         141.2034  139.3843  161.3365 C.2     1  UNL1        0.1763
     10 C         140.5334  140.6726  160.9604 C.3     1  UNL1        0.0739
     11 C         139.0780  140.8766  161.2610 C.3     1  UNL1        0.0345
     12 C         138.6547  141.9355  162.2356 C.ar    1  UNL1       -0.0217
     13 C         138.9014  143.3821  161.9254 C.ar    1  UNL1       -0.0043
     14 C         138.4781  144.4408  162.9001 C.ar    1  UNL1       -0.0003
     15 C         137.8082  144.0529  164.1848 C.ar    1  UNL1       -0.0000
     16 C         137.5615  142.6062  164.4950 C.ar    1  UNL1       -0.0003
     17 C         137.9848  141.5475  163.5204 C.ar    1  UNL1       -0.0043
     18 C         144.4495  141.0296  161.4567 C.3     1  UNL1        0.2358
     19 C         145.0072  141.9745  162.4794 C.3     1  UNL1        0.1700
     20 O         146.4331  141.8406  162.9255 O.3     1  UNL1       -0.3793
     21 H         146.8497  141.0995  162.4587 H       1  UNL1        0.2106
     22 C         144.1390  143.0532  163.0561 C.3     1  UNL1        0.1056
     23 N         143.3116  142.7778  164.2766 N.3     1  UNL1       -0.2705
     24 C         143.9741  142.6293  165.6141 C.3     1  UNL1        0.0725
     25 C         143.1467  142.3538  166.8345 C.3     1  UNL1        0.0217
     26 C         141.6567  142.2269  166.7174 C.3     1  UNL1        0.0251
     27 C         140.9941  142.3754  165.3800 C.3     1  UNL1        0.0217
     28 C         141.8216  142.6508  164.1595 C.3     1  UNL1        0.0725
     29 C         140.8293  141.9514  167.9379 C.ar    1  UNL1       -0.0224
     30 C         140.1345  140.6309  168.0906 C.ar    1  UNL1       -0.0043
     31 C         139.3070  140.3554  169.3110 C.ar    1  UNL1       -0.0003
     32 C         139.1744  141.4005  170.3788 C.ar    1  UNL1       -0.0000
     33 C         139.8692  142.7211  170.2261 C.ar    1  UNL1       -0.0003
     34 C         140.6966  142.9965  169.0056 C.ar    1  UNL1       -0.0043
@<TRIPOS>BOND
     1     8     9    2
     2     9    10    1
     3    10    11    1
     4    11    12    1
     5    12    13   ar
     6    13    14   ar
     7    14    15   ar
     8    15    16   ar
     9    16    17   ar
    10     9     2    1
    11     2     3   ar
    12     3     4   ar
    13     4     5   ar
    14     5     6   ar
    15     6     7   ar
    16     7     1    1
    17     1    18    1
    18    18    19    1
    19    19    20    1
    20    19    22    1
    21    22    23    1
    22    23    24    1
    23    24    25    1
    24    25    26    1
    25    26    29    1
    26    29    30   ar
    27    30    31   ar
    28    31    32   ar
    29    32    33   ar
    30    33    34   ar
    31    26    27    1
    32    27    28    1
    33    17    12   ar
    34     7     2   ar
    35    28    23    1
    36    34    29   ar
    37    20    21    1
