@<TRIPOS>MOLECULE
*****
 34 37 0 0 0
SMALL
GASTEIGER

@<TRIPOS>ATOM
      1 N         139.6156  137.4102  162.0950 N.3     1  UNL1       -0.1733
      2 H         140.0871  136.5093  162.1750 H       1  UNL1        0.1492
      3 S         139.5506  137.9892  163.4772 S.O2    1  UNL1        0.0606
      4 O         140.8416  137.3082  163.8231 O.2     1  UNL1       -0.1530
      5 O         138.2597  138.6701  163.1313 O.2     1  UNL1       -0.1530
      6 C         139.4856  138.5681  164.8595 C.ar    1  UNL1        0.1219
      7 C         138.3065  138.2772  165.7398 C.ar    1  UNL1        0.0196
      8 C         138.2415  138.8561  167.1220 C.ar    1  UNL1       -0.0026
      9 C         139.3556  139.7260  167.6239 C.ar    1  UNL1       -0.0177
     10 C         140.5347  140.0170  166.7436 C.ar    1  UNL1       -0.0026
     11 C         140.5997  139.4380  165.3614 C.ar    1  UNL1        0.0196
     12 C         139.2906  140.3050  169.0062 C.3     1  UNL1        0.0526
     13 C         140.3765  141.2211  169.4875 C.ar    1  UNL1       -0.0178
     14 C         141.6512  140.6506  170.0348 C.ar    1  UNL1       -0.0039
     15 C         142.7371  141.5667  170.5161 C.ar    1  UNL1       -0.0003
     16 C         142.5482  143.0533  170.4501 C.ar    1  UNL1       -0.0000
     17 C         141.2735  143.6238  169.9028 C.ar    1  UNL1       -0.0003
     18 C         140.1876  142.7077  169.4215 C.ar    1  UNL1       -0.0039
     19 C         140.3062  138.1645  160.9977 C.3     1  UNL1        0.1387
     20 C         142.2860  141.4168  161.7520 C.ar    1  UNL1        0.0617
     21 C         142.2271  139.9267  161.5890 C.ar    1  UNL1        0.0326
     22 C         140.8150  139.5533  161.2473 C.ar    1  UNL1        0.0977
     23 N         140.0013  140.8125  161.1991 N.ar    1  UNL1       -0.1683
     24 N         140.9103  141.9641  161.5110 N.ar    1  UNL1       -0.2340
     25 C         140.5134  143.4093  161.5714 C.ar    1  UNL1        0.0824
     26 C         140.7093  144.2916  160.3742 C.ar    1  UNL1        0.0191
     27 C         140.3124  145.7368  160.4345 C.ar    1  UNL1        0.0015
     28 C         139.7196  146.2999  161.6921 C.ar    1  UNL1        0.0001
     29 C         139.5237  145.4177  162.8894 C.ar    1  UNL1        0.0015
     30 C         139.9207  143.9724  162.8290 C.ar    1  UNL1        0.0191
     31 C         143.5062  142.2186  162.0956 C.3     1  UNL1        0.0459
     32 C         143.7671  144.5928  163.1177 C.3     1  UNL1        0.0004
     33 C         143.4948  143.1277  163.2886 C.3     1  UNL1        0.0059
     34 C         143.2112  142.5717  164.6526 C.3     1  UNL1        0.0004
@<TRIPOS>BOND
     1    32    33    1
     2    33    34    1
     3    33    31    1
     4    31    20    1
     5    20    21   ar
     6    21    22   ar
     7    22    19    1
     8    19     1    1
     9     1     3    1
    10     3     4    2
    11     3     5    2
    12     3     6    1
    13     6     7   ar
    14     7     8   ar
    15     8     9   ar
    16     9    12    1
    17    12    13    1
    18    13    14   ar
    19    14    15   ar
    20    15    16   ar
    21    16    17   ar
    22    17    18   ar
    23     9    10   ar
    24    10    11   ar
    25    22    23   ar
    26    23    24   ar
    27    24    25    1
    28    25    26   ar
    29    26    27   ar
    30    27    28   ar
    31    28    29   ar
    32    29    30   ar
    33    24    20   ar
    34    30    25   ar
    35    11     6   ar
    36    18    13   ar
    37     1     2    1
@<TRIPOS>MOLECULE
*****
 34 37 0 0 0
SMALL
GASTEIGER

@<TRIPOS>ATOM
      1 N         141.8350  137.2688  161.7926 N.3     1  UNL1       -0.1733
      2 H         142.5888  136.6248  162.0320 H       1  UNL1        0.1492
      3 S         141.3099  137.8204  163.0848 S.O2    1  UNL1        0.0606
      4 O         139.9094  137.7261  162.5559 O.2     1  UNL1       -0.1530
      5 O         142.7103  137.9147  163.6137 O.2     1  UNL1       -0.1530
      6 C         140.7847  138.3720  164.3771 C.ar    1  UNL1        0.1219
      7 C         141.6906  139.1527  165.2826 C.ar    1  UNL1        0.0196
      8 C         141.1654  139.7042  166.5748 C.ar    1  UNL1       -0.0026
      9 C         139.7344  139.4751  166.9616 C.ar    1  UNL1       -0.0177
     10 C         138.8285  138.6944  166.0562 C.ar    1  UNL1       -0.0026
     11 C         139.3537  138.1428  164.7640 C.ar    1  UNL1        0.0196
     12 C         139.2093  140.0267  168.2540 C.3     1  UNL1        0.0526
     13 C         140.1193  140.7936  169.1670 C.ar    1  UNL1       -0.0178
     14 C         140.3134  142.2676  168.9675 C.ar    1  UNL1       -0.0039
     15 C         141.2235  143.0345  169.8806 C.ar    1  UNL1       -0.0003
     16 C         141.9394  142.3275  170.9930 C.ar    1  UNL1       -0.0000
     17 C         141.7453  140.8536  171.1924 C.ar    1  UNL1       -0.0003
     18 C         140.8353  140.0866  170.2794 C.ar    1  UNL1       -0.0039
     19 C         142.3749  138.1970  160.7452 C.3     1  UNL1        0.1387
     20 C         143.4548  141.8254  161.6022 C.ar    1  UNL1        0.0617
     21 C         143.7811  140.3765  161.3915 C.ar    1  UNL1        0.0326
     22 C         142.5103  139.6618  161.0390 C.ar    1  UNL1        0.0977
     23 N         141.3987  140.6689  161.0318 N.ar    1  UNL1       -0.1683
     24 N         141.9824  142.0061  161.3799 N.ar    1  UNL1       -0.2340
     25 C         141.2265  143.2972  161.4869 C.ar    1  UNL1        0.0824
     26 C         140.4871  143.6312  162.7486 C.ar    1  UNL1        0.0191
     27 C         139.7312  144.9222  162.8555 C.ar    1  UNL1        0.0015
     28 C         139.7146  145.8795  161.7009 C.ar    1  UNL1        0.0001
     29 C         140.4540  145.5456  160.4391 C.ar    1  UNL1        0.0015
     30 C         141.2099  144.2544  160.3322 C.ar    1  UNL1        0.0191
     31 C         144.4298  142.9042  161.9705 C.3     1  UNL1        0.0459
     32 C         143.8661  145.0427  163.3339 C.3     1  UNL1        0.0004
     33 C         144.3055  143.6093  163.2886 C.3     1  UNL1        0.0059
     34 C         144.6207  142.8809  164.5615 C.3     1  UNL1        0.0004
@<TRIPOS>BOND
     1    32    33    1
     2    33    34    1
     3    33    31    1
     4    31    20    1
     5    20    21   ar
     6    21    22   ar
     7    22    19    1
     8    19     1    1
     9     1     3    1
    10     3     4    2
    11     3     5    2
    12     3     6    1
    13     6     7   ar
    14     7     8   ar
    15     8     9   ar
    16     9    12    1
    17    12    13    1
    18    13    14   ar
    19    14    15   ar
    20    15    16   ar
    21    16    17   ar
    22    17    18   ar
    23     9    10   ar
    24    10    11   ar
    25    22    23   ar
    26    23    24   ar
    27    24    25    1
    28    25    26   ar
    29    26    27   ar
    30    27    28   ar
    31    28    29   ar
    32    29    30   ar
    33    24    20   ar
    34    30    25   ar
    35    11     6   ar
    36    18    13   ar
    37     1     2    1
@<TRIPOS>MOLECULE
*****
 34 37 0 0 0
SMALL
GASTEIGER

@<TRIPOS>ATOM
      1 N         139.3526  137.5360  161.8085 N.3     1  UNL1       -0.1733
      2 H         139.9980  136.7464  161.7859 H       1  UNL1        0.1492
      3 S         139.3433  138.0474  163.2186 S.O2    1  UNL1        0.0606
      4 O         140.6533  137.3635  163.4753 O.2     1  UNL1       -0.1530
      5 O         138.0332  138.7313  162.9619 O.2     1  UNL1       -0.1530
      6 C         139.3338  138.5588  164.6288 C.ar    1  UNL1        0.1219
      7 C         138.1914  138.2228  165.5408 C.ar    1  UNL1        0.0196
      8 C         138.1820  138.7342  166.9508 C.ar    1  UNL1       -0.0026
      9 C         139.3151  139.5816  167.4489 C.ar    1  UNL1       -0.0177
     10 C         140.4576  139.9176  166.5369 C.ar    1  UNL1       -0.0026
     11 C         140.4669  139.4062  165.1268 C.ar    1  UNL1        0.0196
     12 C         139.3057  140.0930  168.8590 C.3     1  UNL1        0.0526
     13 C         140.4203  140.9706  169.3460 C.ar    1  UNL1       -0.0178
     14 C         141.6930  140.3567  169.8495 C.ar    1  UNL1       -0.0039
     15 C         142.8077  141.2344  170.3365 C.ar    1  UNL1       -0.0003
     16 C         142.6498  142.7260  170.3200 C.ar    1  UNL1       -0.0000
     17 C         141.3771  143.3399  169.8165 C.ar    1  UNL1       -0.0003
     18 C         140.2624  142.4623  169.3295 C.ar    1  UNL1       -0.0039
     19 C         139.7436  138.4471  160.6829 C.3     1  UNL1        0.1387
     20 C         140.0173  142.3084  160.9686 C.ar    1  UNL1        0.0617
     21 C         139.3388  141.0783  160.4424 C.ar    1  UNL1        0.0326
     22 C         140.0800  139.8821  160.9618 C.ar    1  UNL1        0.0977
     23 N         141.2164  140.3727  161.8089 N.ar    1  UNL1       -0.1683
     24 N         141.1777  141.8722  161.8132 N.ar    1  UNL1       -0.2340
     25 C         142.1319  142.7767  162.5351 C.ar    1  UNL1        0.0824
     26 C         143.2837  143.3936  161.7984 C.ar    1  UNL1        0.0191
     27 C         144.2379  144.2981  162.5204 C.ar    1  UNL1        0.0015
     28 C         144.0403  144.5859  163.9792 C.ar    1  UNL1        0.0001
     29 C         142.8884  143.9690  164.7161 C.ar    1  UNL1        0.0015
     30 C         141.9343  143.0645  163.9940 C.ar    1  UNL1        0.0191
     31 C         139.6073  143.7256  160.6979 C.3     1  UNL1        0.0459
     32 C         138.2064  144.3284  162.8012 C.3     1  UNL1        0.0004
     33 C         139.3115  144.6520  161.8399 C.3     1  UNL1        0.0059
     34 C         140.1207  145.9020  162.0207 C.3     1  UNL1        0.0004
@<TRIPOS>BOND
     1    32    33    1
     2    33    34    1
     3    33    31    1
     4    31    20    1
     5    20    21   ar
     6    21    22   ar
     7    22    19    1
     8    19     1    1
     9     1     3    1
    10     3     4    2
    11     3     5    2
    12     3     6    1
    13     6     7   ar
    14     7     8   ar
    15     8     9   ar
    16     9    12    1
    17    12    13    1
    18    13    14   ar
    19    14    15   ar
    20    15    16   ar
    21    16    17   ar
    22    17    18   ar
    23     9    10   ar
    24    10    11   ar
    25    22    23   ar
    26    23    24   ar
    27    24    25    1
    28    25    26   ar
    29    26    27   ar
    30    27    28   ar
    31    28    29   ar
    32    29    30   ar
    33    24    20   ar
    34    30    25   ar
    35    11     6   ar
    36    18    13   ar
    37     1     2    1
@<TRIPOS>MOLECULE
*****
 34 37 0 0 0
SMALL
GASTEIGER

@<TRIPOS>ATOM
      1 N         138.1468  139.3827  159.7741 N.3     1  UNL1       -0.1733
      2 H         138.2642  138.4282  159.4341 H       1  UNL1        0.1492
      3 S         138.2084  139.3197  161.2714 S.O2    1  UNL1        0.0606
      4 O         137.3465  140.5442  161.3584 O.2     1  UNL1       -0.1530
      5 O         139.0704  138.0952  161.1845 O.2     1  UNL1       -0.1530
      6 C         138.2701  139.2567  162.7689 C.ar    1  UNL1        0.1219
      7 C         137.9017  140.4594  163.5860 C.ar    1  UNL1        0.0196
      8 C         137.9633  140.3963  165.0833 C.ar    1  UNL1       -0.0026
      9 C         138.3933  139.1305  165.7636 C.ar    1  UNL1       -0.0177
     10 C         138.7617  137.9278  164.9465 C.ar    1  UNL1       -0.0026
     11 C         138.7001  137.9909  163.4492 C.ar    1  UNL1        0.0196
     12 C         138.4550  139.0675  167.2611 C.3     1  UNL1        0.0526
     13 C         139.4615  139.8935  168.0057 C.ar    1  UNL1       -0.0178
     14 C         140.7756  140.2309  167.3660 C.ar    1  UNL1       -0.0039
     15 C         141.7822  141.0570  168.1107 C.ar    1  UNL1       -0.0003
     16 C         141.4746  141.5456  169.4951 C.ar    1  UNL1       -0.0000
     17 C         140.1605  141.2082  170.1349 C.ar    1  UNL1       -0.0003
     18 C         139.1539  140.3822  169.3902 C.ar    1  UNL1       -0.0039
     19 C         139.1232  140.2346  159.0184 C.3     1  UNL1        0.1387
     20 C         141.2065  143.1039  160.5972 C.ar    1  UNL1        0.0617
     21 C         140.1041  142.6262  159.6991 C.ar    1  UNL1        0.0326
     22 C         140.0716  141.1278  159.7620 C.ar    1  UNL1        0.0977
     23 N         141.1538  140.6796  160.6989 N.ar    1  UNL1       -0.1683
     24 N         141.8552  141.9008  161.2151 N.ar    1  UNL1       -0.2340
     25 C         143.0037  141.9163  162.1798 C.ar    1  UNL1        0.0824
     26 C         144.4098  142.0322  161.6703 C.ar    1  UNL1        0.0191
     27 C         145.5582  142.0476  162.6350 C.ar    1  UNL1        0.0015
     28 C         145.3007  141.9472  164.1093 C.ar    1  UNL1        0.0001
     29 C         143.8946  141.8313  164.6190 C.ar    1  UNL1        0.0015
     30 C         142.7462  141.8158  163.6541 C.ar    1  UNL1        0.0191
     31 C         141.5924  144.5337  160.8356 C.3     1  UNL1        0.0459
     32 C         141.6916  145.2542  163.3298 C.3     1  UNL1        0.0004
     33 C         141.0081  145.2850  161.9949 C.3     1  UNL1        0.0059
     34 C         139.7401  146.0671  161.8194 C.3     1  UNL1        0.0004
@<TRIPOS>BOND
     1    32    33    1
     2    33    34    1
     3    33    31    1
     4    31    20    1
     5    20    21   ar
     6    21    22   ar
     7    22    19    1
     8    19     1    1
     9     1     3    1
    10     3     4    2
    11     3     5    2
    12     3     6    1
    13     6     7   ar
    14     7     8   ar
    15     8     9   ar
    16     9    12    1
    17    12    13    1
    18    13    14   ar
    19    14    15   ar
    20    15    16   ar
    21    16    17   ar
    22    17    18   ar
    23     9    10   ar
    24    10    11   ar
    25    22    23   ar
    26    23    24   ar
    27    24    25    1
    28    25    26   ar
    29    26    27   ar
    30    27    28   ar
    31    28    29   ar
    32    29    30   ar
    33    24    20   ar
    34    30    25   ar
    35    11     6   ar
    36    18    13   ar
    37     1     2    1
@<TRIPOS>MOLECULE
*****
 34 37 0 0 0
SMALL
GASTEIGER

@<TRIPOS>ATOM
      1 N         139.0130  137.6533  161.6640 N.3     1  UNL1       -0.1733
      2 H         139.2481  136.6608  161.6731 H       1  UNL1        0.1492
      3 S         138.9776  138.1031  163.0945 S.O2    1  UNL1        0.0606
      4 O         137.8740  139.0641  162.7650 O.2     1  UNL1       -0.1530
      5 O         140.0811  137.1421  163.4240 O.2     1  UNL1       -0.1530
      6 C         138.9422  138.5529  164.5251 C.ar    1  UNL1        0.1219
      7 C         138.1118  137.8055  165.5259 C.ar    1  UNL1        0.0196
      8 C         138.0764  138.2552  166.9564 C.ar    1  UNL1       -0.0026
      9 C         138.8715  139.4524  167.3861 C.ar    1  UNL1       -0.0177
     10 C         139.7019  140.1998  166.3852 C.ar    1  UNL1       -0.0026
     11 C         139.7373  139.7501  164.9547 C.ar    1  UNL1        0.0196
     12 C         138.8361  139.9022  168.8167 C.3     1  UNL1        0.0526
     13 C         140.0177  140.6111  169.4094 C.ar    1  UNL1       -0.0178
     14 C         139.9454  142.0826  169.6914 C.ar    1  UNL1       -0.0039
     15 C         141.1270  142.7916  170.2842 C.ar    1  UNL1       -0.0003
     16 C         142.3808  142.0290  170.5949 C.ar    1  UNL1       -0.0000
     17 C         142.4530  140.5575  170.3129 C.ar    1  UNL1       -0.0003
     18 C         141.2715  139.8486  169.7202 C.ar    1  UNL1       -0.0039
     19 C         139.9490  138.3112  160.6939 C.3     1  UNL1        0.1387
     20 C         143.0816  140.3150  161.8061 C.ar    1  UNL1        0.0617
     21 C         142.4495  139.0713  161.2549 C.ar    1  UNL1        0.0326
     22 C         140.9680  139.2961  161.1854 C.ar    1  UNL1        0.0977
     23 N         140.6846  140.6786  161.6935 N.ar    1  UNL1       -0.1683
     24 N         141.9908  141.3084  162.0772 N.ar    1  UNL1       -0.2340
     25 C         142.1741  142.6889  162.6341 C.ar    1  UNL1        0.0824
     26 C         143.3786  143.4977  162.2530 C.ar    1  UNL1        0.0191
     27 C         143.5619  144.8783  162.8099 C.ar    1  UNL1        0.0015
     28 C         142.5407  145.4503  163.7479 C.ar    1  UNL1        0.0001
     29 C         141.3361  144.6416  164.1291 C.ar    1  UNL1        0.0015
     30 C         141.1529  143.2610  163.5721 C.ar    1  UNL1        0.0191
     31 C         144.5472  140.5279  162.0444 C.3     1  UNL1        0.0459
     32 C         144.7688  139.3670  164.3581 C.3     1  UNL1        0.0004
     33 C         145.0899  140.5110  163.4427 C.3     1  UNL1        0.0059
     34 C         145.9536  141.6383  163.9256 C.3     1  UNL1        0.0004
@<TRIPOS>BOND
     1    32    33    1
     2    33    34    1
     3    33    31    1
     4    31    20    1
     5    20    21   ar
     6    21    22   ar
     7    22    19    1
     8    19     1    1
     9     1     3    1
    10     3     4    2
    11     3     5    2
    12     3     6    1
    13     6     7   ar
    14     7     8   ar
    15     8     9   ar
    16     9    12    1
    17    12    13    1
    18    13    14   ar
    19    14    15   ar
    20    15    16   ar
    21    16    17   ar
    22    17    18   ar
    23     9    10   ar
    24    10    11   ar
    25    22    23   ar
    26    23    24   ar
    27    24    25    1
    28    25    26   ar
    29    26    27   ar
    30    27    28   ar
    31    28    29   ar
    32    29    30   ar
    33    24    20   ar
    34    30    25   ar
    35    11     6   ar
    36    18    13   ar
    37     1     2    1
@<TRIPOS>MOLECULE
*****
 34 37 0 0 0
SMALL
GASTEIGER

@<TRIPOS>ATOM
      1 N         138.5660  137.4875  162.1111 N.3     1  UNL1       -0.1733
      2 H         139.1635  137.1725  161.3469 H       1  UNL1        0.1492
      3 S         139.4754  137.8962  163.2317 S.O2    1  UNL1        0.0606
      4 O         138.3331  137.7891  164.1979 O.2     1  UNL1       -0.1530
      5 O         140.6178  138.0032  162.2655 O.2     1  UNL1       -0.1530
      6 C         140.3850  138.3049  164.3523 C.ar    1  UNL1        0.1219
      7 C         139.9008  139.2632  165.3998 C.ar    1  UNL1        0.0196
      8 C         140.8104  139.6718  166.5203 C.ar    1  UNL1       -0.0026
      9 C         142.2041  139.1222  166.5934 C.ar    1  UNL1       -0.0177
     10 C         142.6883  138.1638  165.5460 C.ar    1  UNL1       -0.0026
     11 C         141.7787  137.7552  164.4255 C.ar    1  UNL1        0.0196
     12 C         143.1137  139.5309  167.7141 C.3     1  UNL1        0.0526
     13 C         142.6085  140.4367  168.7976 C.ar    1  UNL1       -0.0178
     14 C         142.8876  141.9092  168.7350 C.ar    1  UNL1       -0.0039
     15 C         142.3824  142.8151  169.8186 C.ar    1  UNL1       -0.0003
     16 C         141.5981  142.2485  170.9648 C.ar    1  UNL1       -0.0000
     17 C         141.3191  140.7760  171.0275 C.ar    1  UNL1       -0.0003
     18 C         141.8242  139.8702  169.9439 C.ar    1  UNL1       -0.0039
     19 C         137.6028  138.4783  161.5276 C.3     1  UNL1        0.1387
     20 C         138.0514  142.2682  162.2357 C.ar    1  UNL1        0.0617
     21 C         137.5126  140.9197  162.6121 C.ar    1  UNL1        0.0326
     22 C         137.9266  139.9428  161.5518 C.ar    1  UNL1        0.0977
     23 N         138.7211  140.6873  160.5201 N.ar    1  UNL1       -0.1683
     24 N         138.7982  142.1245  160.9427 N.ar    1  UNL1       -0.2340
     25 C         139.4991  143.2247  160.2025 C.ar    1  UNL1        0.0824
     26 C         139.2949  143.3832  158.7249 C.ar    1  UNL1        0.0191
     27 C         139.9958  144.4835  157.9846 C.ar    1  UNL1        0.0015
     28 C         140.9010  145.4253  158.7218 C.ar    1  UNL1        0.0001
     29 C         141.1053  145.2669  160.1994 C.ar    1  UNL1        0.0015
     30 C         140.4043  144.1665  160.9397 C.ar    1  UNL1        0.0191
     31 C         137.8743  143.5374  163.0153 C.3     1  UNL1        0.0459
     32 C         139.9589  142.9973  164.4687 C.3     1  UNL1        0.0004
     33 C         138.7054  143.7883  164.2385 C.3     1  UNL1        0.0059
     34 C         138.2831  144.8303  165.2315 C.3     1  UNL1        0.0004
@<TRIPOS>BOND
     1    32    33    1
     2    33    34    1
     3    33    31    1
     4    31    20    1
     5    20    21   ar
     6    21    22   ar
     7    22    19    1
     8    19     1    1
     9     1     3    1
    10     3     4    2
    11     3     5    2
    12     3     6    1
    13     6     7   ar
    14     7     8   ar
    15     8     9   ar
    16     9    12    1
    17    12    13    1
    18    13    14   ar
    19    14    15   ar
    20    15    16   ar
    21    16    17   ar
    22    17    18   ar
    23     9    10   ar
    24    10    11   ar
    25    22    23   ar
    26    23    24   ar
    27    24    25    1
    28    25    26   ar
    29    26    27   ar
    30    27    28   ar
    31    28    29   ar
    32    29    30   ar
    33    24    20   ar
    34    30    25   ar
    35    11     6   ar
    36    18    13   ar
    37     1     2    1
@<TRIPOS>MOLECULE
*****
 34 37 0 0 0
SMALL
GASTEIGER

@<TRIPOS>ATOM
      1 N         137.5202  139.4852  161.8767 N.3     1  UNL1       -0.1733
      2 H         137.4263  138.4872  161.6884 H       1  UNL1        0.1492
      3 S         137.9467  139.6175  163.3086 S.O2    1  UNL1        0.0606
      4 O         138.6447  138.2926  163.2231 O.2     1  UNL1       -0.1530
      5 O         137.2488  140.9425  163.3941 O.2     1  UNL1       -0.1530
      6 C         138.3733  139.7499  164.7407 C.ar    1  UNL1        0.1219
      7 C         137.9252  138.7380  165.7532 C.ar    1  UNL1        0.0196
      8 C         138.3518  138.8704  167.1852 C.ar    1  UNL1       -0.0026
      9 C         139.2264  140.0146  167.6045 C.ar    1  UNL1       -0.0177
     10 C         139.6745  141.0264  166.5919 C.ar    1  UNL1       -0.0026
     11 C         139.2479  140.8940  165.1600 C.ar    1  UNL1        0.0196
     12 C         139.6530  140.1469  169.0365 C.3     1  UNL1        0.0526
     13 C         140.7920  141.0530  169.3991 C.ar    1  UNL1       -0.0178
     14 C         142.1903  140.5132  169.4582 C.ar    1  UNL1       -0.0039
     15 C         143.3294  141.4194  169.8208 C.ar    1  UNL1       -0.0003
     16 C         143.0701  142.8653  170.1244 C.ar    1  UNL1       -0.0000
     17 C         141.6719  143.4051  170.0653 C.ar    1  UNL1       -0.0003
     18 C         140.5328  142.4990  169.7027 C.ar    1  UNL1       -0.0039
     19 C         138.3759  140.0535  160.7836 C.3     1  UNL1        0.1387
     20 C         141.0252  142.8303  161.3636 C.ar    1  UNL1        0.0617
     21 C         139.6849  142.3828  160.8599 C.ar    1  UNL1        0.0326
     22 C         139.5574  140.9121  161.1258 C.ar    1  UNL1        0.0977
     23 N         140.8187  140.4506  161.7937 N.ar    1  UNL1       -0.1683
     24 N         141.7258  141.6361  161.9407 N.ar    1  UNL1       -0.2340
     25 C         143.0934  141.6288  162.5567 C.ar    1  UNL1        0.0824
     26 C         143.2886  141.0917  163.9436 C.ar    1  UNL1        0.0191
     27 C         144.6562  141.0843  164.5595 C.ar    1  UNL1        0.0015
     28 C         145.8288  141.6141  163.7886 C.ar    1  UNL1        0.0001
     29 C         145.6338  142.1512  162.4017 C.ar    1  UNL1        0.0015
     30 C         144.2661  142.1585  161.7858 C.ar    1  UNL1        0.0191
     31 C         141.5692  144.2268  161.3012 C.3     1  UNL1        0.0459
     32 C         140.0897  146.1455  162.2391 C.3     1  UNL1        0.0004
     33 C         141.2489  145.2059  162.3915 C.3     1  UNL1        0.0059
     34 C         142.0879  145.2453  163.6344 C.3     1  UNL1        0.0004
@<TRIPOS>BOND
     1    32    33    1
     2    33    34    1
     3    33    31    1
     4    31    20    1
     5    20    21   ar
     6    21    22   ar
     7    22    19    1
     8    19     1    1
     9     1     3    1
    10     3     4    2
    11     3     5    2
    12     3     6    1
    13     6     7   ar
    14     7     8   ar
    15     8     9   ar
    16     9    12    1
    17    12    13    1
    18    13    14   ar
    19    14    15   ar
    20    15    16   ar
    21    16    17   ar
    22    17    18   ar
    23     9    10   ar
    24    10    11   ar
    25    22    23   ar
    26    23    24   ar
    27    24    25    1
    28    25    26   ar
    29    26    27   ar
    30    27    28   ar
    31    28    29   ar
    32    29    30   ar
    33    24    20   ar
    34    30    25   ar
    35    11     6   ar
    36    18    13   ar
    37     1     2    1
@<TRIPOS>MOLECULE
*****
 34 37 0 0 0
SMALL
GASTEIGER

@<TRIPOS>ATOM
      1 N         139.2879  137.5672  161.8731 N.3     1  UNL1       -0.1733
      2 H         139.6222  136.6045  161.9166 H       1  UNL1        0.1492
      3 S         139.3082  138.0963  163.2765 S.O2    1  UNL1        0.0606
      4 O         138.0577  138.8773  163.0001 O.2     1  UNL1       -0.1530
      5 O         140.5586  137.3154  163.5529 O.2     1  UNL1       -0.1530
      6 C         139.3285  138.6255  164.6800 C.ar    1  UNL1        0.1219
      7 C         140.4780  139.4682  165.1472 C.ar    1  UNL1        0.0196
      8 C         140.4982  139.9973  166.5506 C.ar    1  UNL1       -0.0026
      9 C         139.3690  139.6837  167.4868 C.ar    1  UNL1       -0.0177
     10 C         138.2194  138.8410  167.0195 C.ar    1  UNL1       -0.0026
     11 C         138.1992  138.3119  165.6161 C.ar    1  UNL1        0.0196
     12 C         139.3892  140.2128  168.8903 C.3     1  UNL1        0.0526
     13 C         140.5080  141.1054  169.3392 C.ar    1  UNL1       -0.0178
     14 C         140.2763  142.5795  169.4917 C.ar    1  UNL1       -0.0039
     15 C         141.3952  143.4722  169.9406 C.ar    1  UNL1       -0.0003
     16 C         142.7457  142.8906  170.2370 C.ar    1  UNL1       -0.0000
     17 C         142.9774  141.4165  170.0844 C.ar    1  UNL1       -0.0003
     18 C         141.8586  140.5239  169.6355 C.ar    1  UNL1       -0.0039
     19 C         140.0819  138.2533  160.8013 C.3     1  UNL1        0.1387
     20 C         140.1186  142.1188  160.4507 C.ar    1  UNL1        0.0617
     21 C         139.5750  140.7737  160.0693 C.ar    1  UNL1        0.0326
     22 C         140.3067  139.7350  160.8667 C.ar    1  UNL1        0.0977
     23 N         141.3025  140.4380  161.7408 N.ar    1  UNL1       -0.1683
     24 N         141.1863  141.9112  161.4838 N.ar    1  UNL1       -0.2340
     25 C         141.9956  142.9879  162.1438 C.ar    1  UNL1        0.0824
     26 C         143.4692  143.0859  161.8816 C.ar    1  UNL1        0.0191
     27 C         144.2785  144.1626  162.5416 C.ar    1  UNL1        0.0015
     28 C         143.6142  145.1413  163.4640 C.ar    1  UNL1        0.0001
     29 C         142.1405  145.0434  163.7263 C.ar    1  UNL1        0.0015
     30 C         141.3313  143.9666  163.0662 C.ar    1  UNL1        0.0191
     31 C         139.6729  143.4394  159.8964 C.3     1  UNL1        0.0459
     32 C         141.3204  145.3521  159.2825 C.3     1  UNL1        0.0004
     33 C         140.5178  144.1502  158.8811 C.3     1  UNL1        0.0059
     34 C         140.5599  143.6592  157.4644 C.3     1  UNL1        0.0004
@<TRIPOS>BOND
     1    32    33    1
     2    33    34    1
     3    33    31    1
     4    31    20    1
     5    20    21   ar
     6    21    22   ar
     7    22    19    1
     8    19     1    1
     9     1     3    1
    10     3     4    2
    11     3     5    2
    12     3     6    1
    13     6     7   ar
    14     7     8   ar
    15     8     9   ar
    16     9    12    1
    17    12    13    1
    18    13    14   ar
    19    14    15   ar
    20    15    16   ar
    21    16    17   ar
    22    17    18   ar
    23     9    10   ar
    24    10    11   ar
    25    22    23   ar
    26    23    24   ar
    27    24    25    1
    28    25    26   ar
    29    26    27   ar
    30    27    28   ar
    31    28    29   ar
    32    29    30   ar
    33    24    20   ar
    34    30    25   ar
    35    11     6   ar
    36    18    13   ar
    37     1     2    1
@<TRIPOS>MOLECULE
*****
 34 37 0 0 0
SMALL
GASTEIGER

@<TRIPOS>ATOM
      1 N         137.7491  139.6354  160.2935 N.3     1  UNL1       -0.1733
      2 H         137.6709  138.6546  160.0243 H       1  UNL1        0.1492
      3 S         138.0475  139.6584  161.7633 S.O2    1  UNL1        0.0606
      4 O         137.1849  140.8755  161.9194 O.2     1  UNL1       -0.1530
      5 O         138.9102  138.4413  161.6073 O.2     1  UNL1       -0.1530
      6 C         138.3460  139.6814  163.2332 C.ar    1  UNL1        0.1219
      7 C         138.2922  140.9757  163.9893 C.ar    1  UNL1        0.0196
      8 C         138.5906  140.9987  165.4591 C.ar    1  UNL1       -0.0026
      9 C         138.9429  139.7273  166.1728 C.ar    1  UNL1       -0.0177
     10 C         138.9968  138.4329  165.4167 C.ar    1  UNL1       -0.0026
     11 C         138.6983  138.4100  163.9469 C.ar    1  UNL1        0.0196
     12 C         139.2414  139.7503  167.6427 C.3     1  UNL1        0.0526
     13 C         140.3840  140.5710  168.1632 C.ar    1  UNL1       -0.0178
     14 C         140.1193  141.8921  168.8224 C.ar    1  UNL1       -0.0039
     15 C         141.2619  142.7128  169.3429 C.ar    1  UNL1       -0.0003
     16 C         142.6691  142.2124  169.2043 C.ar    1  UNL1       -0.0000
     17 C         142.9338  140.8912  168.5452 C.ar    1  UNL1       -0.0003
     18 C         141.7913  140.0705  168.0246 C.ar    1  UNL1       -0.0039
     19 C         138.6989  140.2758  159.3252 C.3     1  UNL1        0.1387
     20 C         140.0869  143.8836  159.6758 C.ar    1  UNL1        0.0617
     21 C         139.2170  142.8759  158.9845 C.ar    1  UNL1        0.0326
     22 C         139.3845  141.5604  159.6856 C.ar    1  UNL1        0.0977
     23 N         140.3578  141.7551  160.8102 N.ar    1  UNL1       -0.1683
     24 N         140.7919  143.1909  160.8042 N.ar    1  UNL1       -0.2340
     25 C         141.7609  143.8230  161.7589 C.ar    1  UNL1        0.0824
     26 C         141.2618  144.7359  162.8394 C.ar    1  UNL1        0.0191
     27 C         142.2308  145.3680  163.7941 C.ar    1  UNL1        0.0015
     28 C         143.6989  145.0872  163.6683 C.ar    1  UNL1        0.0001
     29 C         144.1980  144.1742  162.5878 C.ar    1  UNL1        0.0015
     30 C         143.2289  143.5421  161.6331 C.ar    1  UNL1        0.0191
     31 C         140.2271  145.3301  159.3041 C.3     1  UNL1        0.0459
     32 C         142.2018  145.3872  157.6168 C.3     1  UNL1        0.0004
     33 C         140.7780  145.7094  157.9615 C.3     1  UNL1        0.0059
     34 C         139.9051  146.4109  156.9635 C.3     1  UNL1        0.0004
@<TRIPOS>BOND
     1    32    33    1
     2    33    34    1
     3    33    31    1
     4    31    20    1
     5    20    21   ar
     6    21    22   ar
     7    22    19    1
     8    19     1    1
     9     1     3    1
    10     3     4    2
    11     3     5    2
    12     3     6    1
    13     6     7   ar
    14     7     8   ar
    15     8     9   ar
    16     9    12    1
    17    12    13    1
    18    13    14   ar
    19    14    15   ar
    20    15    16   ar
    21    16    17   ar
    22    17    18   ar
    23     9    10   ar
    24    10    11   ar
    25    22    23   ar
    26    23    24   ar
    27    24    25    1
    28    25    26   ar
    29    26    27   ar
    30    27    28   ar
    31    28    29   ar
    32    29    30   ar
    33    24    20   ar
    34    30    25   ar
    35    11     6   ar
    36    18    13   ar
    37     1     2    1
