@<TRIPOS>MOLECULE
*****
 37 39 0 0 0
SMALL
GASTEIGER

@<TRIPOS>ATOM
      1 C         139.0983  140.3115  162.8761 C.3     1  UNL1        0.1017
      2 C         140.0231  139.3358  162.2106 C.3     1  UNL1        0.0394
      3 C         140.0777  139.2555  160.7137 C.3     1  UNL1        0.0739
      4 N         139.2076  140.1509  159.8824 N.3     1  UNL1       -0.2705
      5 C         138.2828  141.1266  160.5479 C.3     1  UNL1        0.1037
      6 C         138.2282  141.2069  162.0447 C.3     1  UNL1        0.1490
      7 C         140.0853  141.1700  165.1208 C.2     1  UNL1        0.2488
      8 O         141.1816  141.8680  164.3718 O.2     1  UNL1       -0.2700
      9 N         139.0437  140.3918  164.3729 N.am    1  UNL1       -0.2999
     10 H         138.3242  139.9337  164.8645 H       1  UNL1        0.1498
     11 C         139.4985  140.0944  167.4118 C.ar    1  UNL1        0.1443
     12 C         139.4439  140.1748  168.9086 C.ar    1  UNL1        0.0520
     13 C         139.9214  141.4110  169.6113 C.ar    1  UNL1        0.0553
     14 N         139.8667  141.4912  171.1082 N.pl3   1  UNL1       -0.3563
     15 C         140.4535  142.5669  168.8172 C.ar    1  UNL1        0.0709
     16 CL        140.9310  143.8031  169.5199 Cl      1  UNL1       -0.0810
     17 C         140.5082  142.4865  167.3204 C.ar    1  UNL1        0.0202
     18 C         140.0307  141.2503  166.6177 C.ar    1  UNL1        0.0882
     19 H         139.5174  140.7326  171.6294 H       1  UNL1        0.1424
     20 H         140.1801  142.3026  171.5694 H       1  UNL1        0.1424
     21 C         137.6253  138.3581  166.9364 C.3     1  UNL1        0.2525
     22 O         139.0210  138.8582  166.7091 O.3     1  UNL1       -0.4712
     23 O         137.3034  142.1826  162.7102 O.3     1  UNL1       -0.3505
     24 C         137.7559  143.5895  162.9667 C.3     1  UNL1        0.1741
     25 C         139.2622  140.0706  158.3856 C.3     1  UNL1        0.0722
     26 C         140.3127  139.2341  157.7172 C.3     1  UNL1        0.0194
     27 C         139.9889  137.8391  157.2709 C.3     1  UNL1        0.0229
     28 C         141.0394  137.0026  156.6026 C.3     1  UNL1        0.0934
     29 N         142.4137  137.5611  156.3804 N.am    1  UNL1       -0.2796
     30 C         143.4642  136.7246  155.7121 C.2     1  UNL1        0.2247
     31 O         144.8385  137.2831  155.4900 O.2     1  UNL1       -0.2749
     32 C         142.7376  138.9561  156.8267 C.3     1  UNL1        0.0934
     33 C         141.6871  139.7926  157.4951 C.3     1  UNL1        0.0229
     34 C         143.1404  135.3296  155.2658 C.3     1  UNL1        0.0691
     35 C         143.7140  134.7883  156.5417 C.3     1  UNL1        0.0091
     36 C         142.5668  135.8709  153.9899 C.3     1  UNL1        0.0091
     37 C         142.8166  133.9347  154.8196 C.3     1  UNL1        0.0091
@<TRIPOS>BOND
     1    21    22    1
     2    22    11    1
     3    11    12   ar
     4    12    13   ar
     5    13    14    1
     6    13    15   ar
     7    15    16    1
     8    15    17   ar
     9    17    18   ar
    10    18     7    1
    11     7     8    2
    12     7     9   am
    13     1     9    1
    14     1     2    1
    15     2     3    1
    16     3     4    1
    17     4    25    1
    18    25    26    1
    19    26    27    1
    20    27    28    1
    21    28    29    1
    22    29    30   am
    23    30    31    2
    24    30    34    1
    25    34    35    1
    26    34    36    1
    27    34    37    1
    28    29    32    1
    29    32    33    1
    30     4     5    1
    31     5     6    1
    32     6    23    1
    33    23    24    1
    34    18    11   ar
    35     6     1    1
    36    33    26    1
    37    14    19    1
    38    14    20    1
    39     9    10    1
@<TRIPOS>MOLECULE
*****
 37 39 0 0 0
SMALL
GASTEIGER

@<TRIPOS>ATOM
      1 C         138.0094  140.1598  160.5483 C.3     1  UNL1        0.1017
      2 C         138.6287  138.8008  160.4083 C.3     1  UNL1        0.0394
      3 C         139.0761  138.0512  161.6282 C.3     1  UNL1        0.0739
      4 N         138.9041  138.6606  162.9880 N.3     1  UNL1       -0.2705
      5 C         138.2849  140.0196  163.1279 C.3     1  UNL1        0.1037
      6 C         137.8375  140.7692  161.9082 C.3     1  UNL1        0.1490
      7 C         138.5694  141.6172  158.4717 C.2     1  UNL1        0.2488
      8 O         140.0242  141.5755  158.8347 O.2     1  UNL1       -0.2700
      9 N         137.5620  140.9094  159.3285 N.am    1  UNL1       -0.2999
     10 H         136.6071  140.9368  159.0903 H       1  UNL1        0.1498
     11 C         136.9178  141.9038  156.4867 C.ar    1  UNL1        0.1443
     12 C         136.4704  142.6534  155.2670 C.ar    1  UNL1        0.0520
     13 C         137.2271  143.8661  154.8124 C.ar    1  UNL1        0.0553
     14 N         136.7797  144.6157  153.5925 N.pl3   1  UNL1       -0.3563
     15 C         138.4313  144.3292  155.5775 C.ar    1  UNL1        0.0709
     16 CL        139.1880  145.5419  155.1229 Cl      1  UNL1       -0.0810
     17 C         138.8787  143.5796  156.7973 C.ar    1  UNL1        0.0202
     18 C         138.1219  142.3669  157.2519 C.ar    1  UNL1        0.0882
     19 H         135.9893  144.3118  153.0903 H       1  UNL1        0.1424
     20 H         137.2764  145.4117  153.2941 H       1  UNL1        0.1424
     21 C         134.8302  140.3650  156.3309 C.3     1  UNL1        0.2525
     22 O         136.1610  140.6911  156.9413 O.3     1  UNL1       -0.4712
     23 O         137.2182  142.1282  162.0482 O.3     1  UNL1       -0.3505
     24 C         137.8483  143.1506  162.9469 C.3     1  UNL1        0.1741
     25 C         139.3515  137.9110  164.2077 C.3     1  UNL1        0.0722
     26 C         139.3851  138.5987  165.5404 C.3     1  UNL1        0.0194
     27 C         140.6292  139.3074  165.9875 C.3     1  UNL1        0.0229
     28 C         140.6627  139.9951  167.3202 C.3     1  UNL1        0.0934
     29 N         139.4521  139.9742  168.2056 N.am    1  UNL1       -0.2796
     30 C         139.4857  140.6619  169.5382 C.2     1  UNL1        0.2247
     31 O         138.2750  140.6410  170.4237 O.2     1  UNL1       -0.2749
     32 C         138.2080  139.2655  167.7585 C.3     1  UNL1        0.0934
     33 C         138.1744  138.5778  166.4258 C.3     1  UNL1        0.0229
     34 C         140.7298  141.3706  169.9854 C.3     1  UNL1        0.0691
     35 C         140.2091  142.6515  169.4040 C.3     1  UNL1        0.0091
     36 C         141.2504  140.0897  170.5668 C.3     1  UNL1        0.0091
     37 C         141.9738  142.0793  170.4326 C.3     1  UNL1        0.0091
@<TRIPOS>BOND
     1    21    22    1
     2    22    11    1
     3    11    12   ar
     4    12    13   ar
     5    13    14    1
     6    13    15   ar
     7    15    16    1
     8    15    17   ar
     9    17    18   ar
    10    18     7    1
    11     7     8    2
    12     7     9   am
    13     1     9    1
    14     1     2    1
    15     2     3    1
    16     3     4    1
    17     4    25    1
    18    25    26    1
    19    26    27    1
    20    27    28    1
    21    28    29    1
    22    29    30   am
    23    30    31    2
    24    30    34    1
    25    34    35    1
    26    34    36    1
    27    34    37    1
    28    29    32    1
    29    32    33    1
    30     4     5    1
    31     5     6    1
    32     6    23    1
    33    23    24    1
    34    18    11   ar
    35     6     1    1
    36    33    26    1
    37    14    19    1
    38    14    20    1
    39     9    10    1
@<TRIPOS>MOLECULE
*****
 37 39 0 0 0
SMALL
GASTEIGER

@<TRIPOS>ATOM
      1 C         138.5374  139.4608  159.7994 C.3     1  UNL1        0.1017
      2 C         137.5610  139.4085  160.9369 C.3     1  UNL1        0.0394
      3 C         137.9466  138.7463  162.2265 C.3     1  UNL1        0.0739
      4 N         139.3086  138.1365  162.3785 N.3     1  UNL1       -0.2705
      5 C         140.2850  138.1888  161.2410 C.3     1  UNL1        0.1037
      6 C         139.8994  138.8510  159.9515 C.3     1  UNL1        0.1490
      7 C         138.1543  141.6193  158.4051 C.2     1  UNL1        0.2488
      8 O         138.5424  142.4535  159.5897 O.2     1  UNL1       -0.2700
      9 N         138.1518  140.1229  158.5099 N.am    1  UNL1       -0.2999
     10 H         137.8971  139.5754  157.7323 H       1  UNL1        0.1498
     11 C         136.6009  141.7661  156.3277 C.ar    1  UNL1        0.1443
     12 C         136.2154  142.4282  155.0381 C.ar    1  UNL1        0.0520
     13 C         136.9977  143.6056  154.5364 C.ar    1  UNL1        0.0553
     14 N         136.6121  144.2677  153.2468 N.pl3   1  UNL1       -0.3563
     15 C         138.1654  144.1209  155.3242 C.ar    1  UNL1        0.0709
     16 CL        138.9477  145.2984  154.8225 Cl      1  UNL1       -0.0810
     17 C         138.5510  143.4588  156.6137 C.ar    1  UNL1        0.0202
     18 C         137.7687  142.2814  157.1155 C.ar    1  UNL1        0.0882
     19 H         135.8456  143.9295  152.7297 H       1  UNL1        0.1424
     20 H         137.1255  145.0405  152.9175 H       1  UNL1        0.1424
     21 C         134.4746  140.2757  156.2416 C.3     1  UNL1        0.2525
     22 O         135.8187  140.5886  156.8294 O.3     1  UNL1       -0.4712
     23 O         140.8758  138.9033  158.8140 O.3     1  UNL1       -0.3505
     24 C         142.2106  138.2307  158.9398 C.3     1  UNL1        0.1741
     25 C         139.6941  137.4744  163.6680 C.3     1  UNL1        0.0722
     26 C         139.7939  138.2844  164.9265 C.3     1  UNL1        0.0194
     27 C         141.0474  139.0511  165.2276 C.3     1  UNL1        0.0229
     28 C         141.1472  139.8611  166.4862 C.3     1  UNL1        0.0934
     29 N         139.9933  139.9045  167.4436 N.am    1  UNL1       -0.2796
     30 C         140.0931  140.7145  168.7021 C.2     1  UNL1        0.2247
     31 O         138.9391  140.7579  169.6596 O.2     1  UNL1       -0.2749
     32 C         138.7397  139.1378  167.1425 C.3     1  UNL1        0.0934
     33 C         138.6399  138.3278  165.8840 C.3     1  UNL1        0.0229
     34 C         141.3466  141.4812  169.0032 C.3     1  UNL1        0.0691
     35 C         140.7615  142.6960  168.3461 C.3     1  UNL1        0.0091
     36 C         141.9317  140.2664  169.6603 C.3     1  UNL1        0.0091
     37 C         142.6002  142.2478  169.3044 C.3     1  UNL1        0.0091
@<TRIPOS>BOND
     1    21    22    1
     2    22    11    1
     3    11    12   ar
     4    12    13   ar
     5    13    14    1
     6    13    15   ar
     7    15    16    1
     8    15    17   ar
     9    17    18   ar
    10    18     7    1
    11     7     8    2
    12     7     9   am
    13     1     9    1
    14     1     2    1
    15     2     3    1
    16     3     4    1
    17     4    25    1
    18    25    26    1
    19    26    27    1
    20    27    28    1
    21    28    29    1
    22    29    30   am
    23    30    31    2
    24    30    34    1
    25    34    35    1
    26    34    36    1
    27    34    37    1
    28    29    32    1
    29    32    33    1
    30     4     5    1
    31     5     6    1
    32     6    23    1
    33    23    24    1
    34    18    11   ar
    35     6     1    1
    36    33    26    1
    37    14    19    1
    38    14    20    1
    39     9    10    1
@<TRIPOS>MOLECULE
*****
 37 39 0 0 0
SMALL
GASTEIGER

@<TRIPOS>ATOM
      1 C         141.3028  139.1636  160.8120 C.3     1  UNL1        0.1017
      2 C         142.7484  139.2145  160.4149 C.3     1  UNL1        0.0394
      3 C         143.1553  138.8542  159.0168 C.3     1  UNL1        0.0739
      4 N         142.1165  138.4430  158.0159 N.3     1  UNL1       -0.2705
      5 C         140.6710  138.3921  158.4129 C.3     1  UNL1        0.1037
      6 C         140.2641  138.7524  159.8110 C.3     1  UNL1        0.1490
      7 C         140.6091  138.4431  163.2099 C.2     1  UNL1        0.2488
      8 O         140.7292  137.0020  162.8116 O.2     1  UNL1       -0.2700
      9 N         140.8959  139.5239  162.2101 N.am    1  UNL1       -0.2999
     10 H         140.8171  140.4698  162.4715 H       1  UNL1        0.1498
     11 C         141.0683  139.7103  165.4310 C.ar    1  UNL1        0.1443
     12 C         140.6614  140.0707  166.8290 C.ar    1  UNL1        0.0520
     13 C         139.3884  139.5241  167.4040 C.ar    1  UNL1        0.0553
     14 N         138.9815  139.8845  168.8022 N.pl3   1  UNL1       -0.3563
     15 C         138.5223  138.6172  166.5810 C.ar    1  UNL1        0.0709
     16 CL        137.2493  138.0706  167.1561 Cl      1  UNL1       -0.0810
     17 C         138.9292  138.2569  165.1830 C.ar    1  UNL1        0.0202
     18 C         140.2022  138.8035  164.6080 C.ar    1  UNL1        0.0882
     19 H         139.5500  140.4797  169.3423 H       1  UNL1        0.1424
     20 H         138.1460  139.5257  169.1796 H       1  UNL1        0.1424
     21 C         143.6436  139.5617  165.1217 C.3     1  UNL1        0.2525
     22 O         142.3414  140.2569  164.8559 O.3     1  UNL1       -0.4712
     23 O         138.8185  138.7015  160.2081 O.3     1  UNL1       -0.3505
     24 C         137.9766  139.9408  160.1350 C.3     1  UNL1        0.1741
     25 C         142.5234  138.0827  156.6178 C.3     1  UNL1        0.0722
     26 C         142.7400  136.6456  156.2465 C.3     1  UNL1        0.0194
     27 C         143.0006  135.6259  157.3153 C.3     1  UNL1        0.0229
     28 C         143.2172  134.1888  156.9440 C.3     1  UNL1        0.0934
     29 N         143.1733  133.7714  155.5039 N.am    1  UNL1       -0.2796
     30 C         143.3899  132.3344  155.1326 C.2     1  UNL1        0.2247
     31 O         143.3460  131.9170  153.6925 O.2     1  UNL1       -0.2749
     32 C         142.9127  134.7912  154.4351 C.3     1  UNL1        0.0934
     33 C         142.6961  136.2282  154.8064 C.3     1  UNL1        0.0229
     34 C         143.6505  131.3147  156.2014 C.3     1  UNL1        0.0691
     35 C         145.0639  131.8022  156.3219 C.3     1  UNL1        0.0091
     36 C         142.2371  130.8272  156.0809 C.3     1  UNL1        0.0091
     37 C         143.9110  130.2950  157.2702 C.3     1  UNL1        0.0091
@<TRIPOS>BOND
     1    21    22    1
     2    22    11    1
     3    11    12   ar
     4    12    13   ar
     5    13    14    1
     6    13    15   ar
     7    15    16    1
     8    15    17   ar
     9    17    18   ar
    10    18     7    1
    11     7     8    2
    12     7     9   am
    13     1     9    1
    14     1     2    1
    15     2     3    1
    16     3     4    1
    17     4    25    1
    18    25    26    1
    19    26    27    1
    20    27    28    1
    21    28    29    1
    22    29    30   am
    23    30    31    2
    24    30    34    1
    25    34    35    1
    26    34    36    1
    27    34    37    1
    28    29    32    1
    29    32    33    1
    30     4     5    1
    31     5     6    1
    32     6    23    1
    33    23    24    1
    34    18    11   ar
    35     6     1    1
    36    33    26    1
    37    14    19    1
    38    14    20    1
    39     9    10    1
@<TRIPOS>MOLECULE
*****
 37 39 0 0 0
SMALL
GASTEIGER

@<TRIPOS>ATOM
      1 C         141.1811  138.9884  160.9516 C.3     1  UNL1        0.1017
      2 C         140.1641  138.7964  159.8658 C.3     1  UNL1        0.0394
      3 C         140.6046  138.4053  158.4862 C.3     1  UNL1        0.0739
      4 N         142.0620  138.2062  158.1925 N.3     1  UNL1       -0.2705
      5 C         143.0790  138.3983  159.2783 C.3     1  UNL1        0.1037
      6 C         142.6386  138.7894  160.6578 C.3     1  UNL1        0.1490
      7 C         140.5332  138.3264  163.3789 C.2     1  UNL1        0.2488
      8 O         140.7662  136.8823  163.0472 O.2     1  UNL1       -0.2700
      9 N         140.7407  139.3795  162.3310 N.am    1  UNL1       -0.2999
     10 H         140.5878  140.3274  162.5487 H       1  UNL1        0.1498
     11 C         140.9249  139.6647  165.5711 C.ar    1  UNL1        0.1443
     12 C         140.4844  140.0558  166.9505 C.ar    1  UNL1        0.0520
     13 C         139.2118  139.4998  167.5173 C.ar    1  UNL1        0.0553
     14 N         138.7714  139.8910  168.8969 N.pl3   1  UNL1       -0.3563
     15 C         138.3796  138.5527  166.7047 C.ar    1  UNL1        0.0709
     16 CL        137.1070  137.9967  167.2715 Cl      1  UNL1       -0.0810
     17 C         138.8201  138.1616  165.3252 C.ar    1  UNL1        0.0202
     18 C         140.0928  138.7176  164.7584 C.ar    1  UNL1        0.0882
     19 H         139.3176  140.5126  169.4303 H       1  UNL1        0.1424
     20 H         137.9361  139.5261  169.2689 H       1  UNL1        0.1424
     21 C         142.4300  141.7025  164.9949 C.3     1  UNL1        0.2525
     22 O         142.1976  140.2207  165.0043 O.3     1  UNL1       -0.4712
     23 O         143.6555  138.9814  161.7435 O.3     1  UNL1       -0.3505
     24 C         144.3454  140.3042  161.8996 C.3     1  UNL1        0.1741
     25 C         142.5025  137.8151  156.8130 C.3     1  UNL1        0.0722
     26 C         142.4313  136.3803  156.3816 C.3     1  UNL1        0.0194
     27 C         143.5953  135.4657  156.6236 C.3     1  UNL1        0.0229
     28 C         143.5242  134.0309  156.1921 C.3     1  UNL1        0.0934
     29 N         142.2890  133.5106  155.5187 N.am    1  UNL1       -0.2796
     30 C         142.2178  132.0758  155.0872 C.2     1  UNL1        0.2247
     31 O         140.9826  131.5555  154.4137 O.2     1  UNL1       -0.2749
     32 C         141.1249  134.4252  155.2766 C.3     1  UNL1        0.0934
     33 C         141.1960  135.8600  155.7081 C.3     1  UNL1        0.0229
     34 C         143.3818  131.1612  155.3292 C.3     1  UNL1        0.0691
     35 C         142.9990  131.0567  156.7757 C.3     1  UNL1        0.0091
     36 C         143.7647  131.2657  153.8827 C.3     1  UNL1        0.0091
     37 C         144.5458  130.2467  155.5712 C.3     1  UNL1        0.0091
@<TRIPOS>BOND
     1    21    22    1
     2    22    11    1
     3    11    12   ar
     4    12    13   ar
     5    13    14    1
     6    13    15   ar
     7    15    16    1
     8    15    17   ar
     9    17    18   ar
    10    18     7    1
    11     7     8    2
    12     7     9   am
    13     1     9    1
    14     1     2    1
    15     2     3    1
    16     3     4    1
    17     4    25    1
    18    25    26    1
    19    26    27    1
    20    27    28    1
    21    28    29    1
    22    29    30   am
    23    30    31    2
    24    30    34    1
    25    34    35    1
    26    34    36    1
    27    34    37    1
    28    29    32    1
    29    32    33    1
    30     4     5    1
    31     5     6    1
    32     6    23    1
    33    23    24    1
    34    18    11   ar
    35     6     1    1
    36    33    26    1
    37    14    19    1
    38    14    20    1
    39     9    10    1
@<TRIPOS>MOLECULE
*****
 37 39 0 0 0
SMALL
GASTEIGER

@<TRIPOS>ATOM
      1 C         141.1950  140.7358  163.3352 C.3     1  UNL1        0.1017
      2 C         141.0814  141.7536  162.2391 C.3     1  UNL1        0.0394
      3 C         140.5754  141.3463  160.8870 C.3     1  UNL1        0.0739
      4 N         140.1831  139.9213  160.6310 N.3     1  UNL1       -0.2705
      5 C         140.2967  138.9036  161.7270 C.3     1  UNL1        0.1037
      6 C         140.8027  139.3108  163.0791 C.3     1  UNL1        0.1490
      7 C         140.7310  141.4730  165.7829 C.2     1  UNL1        0.2488
      8 O         139.2551  141.3958  165.5264 O.2     1  UNL1       -0.2700
      9 N         141.7009  141.1430  164.6873 N.am    1  UNL1       -0.2999
     10 H         142.6696  141.1937  164.8556 H       1  UNL1        0.1498
     11 C         142.4948  141.2711  167.6798 C.ar    1  UNL1        0.1443
     12 C         143.0007  141.6783  169.0319 C.ar    1  UNL1        0.0520
     13 C         142.2489  142.6947  169.8392 C.ar    1  UNL1        0.0553
     14 N         142.7549  143.1019  171.1913 N.pl3   1  UNL1       -0.3563
     15 C         140.9911  143.3038  169.2944 C.ar    1  UNL1        0.0709
     16 CL        140.2392  144.3202  170.1017 Cl      1  UNL1       -0.0810
     17 C         140.4851  142.8966  167.9423 C.ar    1  UNL1        0.0202
     18 C         141.2370  141.8802  167.1350 C.ar    1  UNL1        0.0882
     19 H         143.5804  142.7021  171.5489 H       1  UNL1        0.1424
     20 H         142.2614  143.7690  171.7212 H       1  UNL1        0.1424
     21 C         143.0772  138.7927  167.1618 C.3     1  UNL1        0.2525
     22 O         143.2467  140.2547  166.8725 O.3     1  UNL1       -0.4712
     23 O         140.9163  138.2931  164.1751 O.3     1  UNL1       -0.3505
     24 C         139.6952  137.8737  164.9387 C.3     1  UNL1        0.1741
     25 C         139.6772  139.5141  159.2789 C.3     1  UNL1        0.0722
     26 C         140.5855  138.8008  158.3218 C.3     1  UNL1        0.0194
     27 C         140.0239  137.7889  157.3675 C.3     1  UNL1        0.0229
     28 C         140.9323  137.0756  156.4104 C.3     1  UNL1        0.0934
     29 N         142.4022  137.3741  156.4076 N.am    1  UNL1       -0.2796
     30 C         143.3106  136.6608  155.4505 C.2     1  UNL1        0.2247
     31 O         144.7806  136.9594  155.4477 O.2     1  UNL1       -0.2749
     32 C         142.9639  138.3860  157.3619 C.3     1  UNL1        0.0934
     33 C         142.0556  139.0994  158.3190 C.3     1  UNL1        0.0229
     34 C         142.7490  135.6489  154.4962 C.3     1  UNL1        0.0691
     35 C         142.3091  136.7544  153.5828 C.3     1  UNL1        0.0091
     36 C         143.1889  134.5434  155.4096 C.3     1  UNL1        0.0091
     37 C         142.1874  134.6370  153.5420 C.3     1  UNL1        0.0091
@<TRIPOS>BOND
     1    21    22    1
     2    22    11    1
     3    11    12   ar
     4    12    13   ar
     5    13    14    1
     6    13    15   ar
     7    15    16    1
     8    15    17   ar
     9    17    18   ar
    10    18     7    1
    11     7     8    2
    12     7     9   am
    13     1     9    1
    14     1     2    1
    15     2     3    1
    16     3     4    1
    17     4    25    1
    18    25    26    1
    19    26    27    1
    20    27    28    1
    21    28    29    1
    22    29    30   am
    23    30    31    2
    24    30    34    1
    25    34    35    1
    26    34    36    1
    27    34    37    1
    28    29    32    1
    29    32    33    1
    30     4     5    1
    31     5     6    1
    32     6    23    1
    33    23    24    1
    34    18    11   ar
    35     6     1    1
    36    33    26    1
    37    14    19    1
    38    14    20    1
    39     9    10    1
@<TRIPOS>MOLECULE
*****
 37 39 0 0 0
SMALL
GASTEIGER

@<TRIPOS>ATOM
      1 C         141.0859  138.9827  160.9428 C.3     1  UNL1        0.1017
      2 C         140.0390  138.7696  159.8899 C.3     1  UNL1        0.0394
      3 C         140.4420  138.3679  158.5020 C.3     1  UNL1        0.0739
      4 N         141.8918  138.1791  158.1670 N.3     1  UNL1       -0.2705
      5 C         142.9388  138.3921  159.2199 C.3     1  UNL1        0.1037
      6 C         142.5358  138.7939  160.6078 C.3     1  UNL1        0.1490
      7 C         140.4876  138.3380  163.3875 C.2     1  UNL1        0.2488
      8 O         140.6951  136.8898  163.0564 O.2     1  UNL1       -0.2700
      9 N         140.6830  139.3844  162.3307 N.am    1  UNL1       -0.2999
     10 H         140.5467  140.3349  162.5480 H       1  UNL1        0.1498
     11 C         140.9565  139.6653  165.5712 C.ar    1  UNL1        0.1443
     12 C         140.5536  140.0671  166.9590 C.ar    1  UNL1        0.0520
     13 C         139.2787  139.5434  167.5511 C.ar    1  UNL1        0.0553
     14 N         138.8757  139.9453  168.9390 N.pl3   1  UNL1       -0.3563
     15 C         138.4068  138.6180  166.7553 C.ar    1  UNL1        0.0709
     16 CL        137.1319  138.0943  167.3473 Cl      1  UNL1       -0.0810
     17 C         138.8098  138.2162  165.3674 C.ar    1  UNL1        0.0202
     18 C         140.0846  138.7398  164.7754 C.ar    1  UNL1        0.0882
     19 H         139.4480  140.5527  169.4613 H       1  UNL1        0.1424
     20 H         138.0390  139.6016  169.3276 H       1  UNL1        0.1424
     21 C         143.5323  139.5023  165.2728 C.3     1  UNL1        0.2525
     22 O         142.2314  140.1889  164.9791 O.3     1  UNL1       -0.4712
     23 O         143.5828  139.0069  161.6607 O.3     1  UNL1       -0.3505
     24 C         144.2612  140.3389  161.7851 C.3     1  UNL1        0.1741
     25 C         142.2948  137.7773  156.7792 C.3     1  UNL1        0.0722
     26 C         142.2718  136.3315  156.3805 C.3     1  UNL1        0.0194
     27 C         141.4377  135.8879  155.2154 C.3     1  UNL1        0.0229
     28 C         141.4147  134.4421  154.8167 C.3     1  UNL1        0.0934
     29 N         142.2259  133.4398  155.5831 N.am    1  UNL1       -0.2796
     30 C         142.2029  131.9939  155.1843 C.2     1  UNL1        0.2247
     31 O         143.0141  130.9916  155.9508 O.2     1  UNL1       -0.2749
     32 C         143.0600  133.8833  156.7482 C.3     1  UNL1        0.0934
     33 C         143.0830  135.3291  157.1469 C.3     1  UNL1        0.0229
     34 C         141.3688  131.5504  154.0192 C.3     1  UNL1        0.0691
     35 C         140.2409  131.2216  154.9518 C.3     1  UNL1        0.0091
     36 C         142.4967  131.8791  153.0866 C.3     1  UNL1        0.0091
     37 C         140.5347  131.1068  152.8541 C.3     1  UNL1        0.0091
@<TRIPOS>BOND
     1    21    22    1
     2    22    11    1
     3    11    12   ar
     4    12    13   ar
     5    13    14    1
     6    13    15   ar
     7    15    16    1
     8    15    17   ar
     9    17    18   ar
    10    18     7    1
    11     7     8    2
    12     7     9   am
    13     1     9    1
    14     1     2    1
    15     2     3    1
    16     3     4    1
    17     4    25    1
    18    25    26    1
    19    26    27    1
    20    27    28    1
    21    28    29    1
    22    29    30   am
    23    30    31    2
    24    30    34    1
    25    34    35    1
    26    34    36    1
    27    34    37    1
    28    29    32    1
    29    32    33    1
    30     4     5    1
    31     5     6    1
    32     6    23    1
    33    23    24    1
    34    18    11   ar
    35     6     1    1
    36    33    26    1
    37    14    19    1
    38    14    20    1
    39     9    10    1
@<TRIPOS>MOLECULE
*****
 37 39 0 0 0
SMALL
GASTEIGER

@<TRIPOS>ATOM
      1 C         139.3993  140.1390  162.9285 C.3     1  UNL1        0.1017
      2 C         138.7777  138.9231  162.3080 C.3     1  UNL1        0.0394
      3 C         138.7707  138.7625  160.8165 C.3     1  UNL1        0.0739
      4 N         139.3853  139.8179  159.9457 N.3     1  UNL1       -0.2705
      5 C         140.0070  141.0339  160.5663 C.3     1  UNL1        0.1037
      6 C         140.0140  141.1944  162.0576 C.3     1  UNL1        0.1490
      7 C         140.5695  139.7972  165.2228 C.2     1  UNL1        0.2488
      8 O         141.7256  139.1343  164.5344 O.2     1  UNL1       -0.2700
      9 N         139.4063  140.2995  164.4198 N.am    1  UNL1       -0.2999
     10 H         138.6475  140.7346  164.8716 H       1  UNL1        0.1498
     11 C         139.3155  139.7425  167.4976 C.ar    1  UNL1        0.1443
     12 C         139.3225  139.9030  168.9889 C.ar    1  UNL1        0.0520
     13 C         140.5904  140.2790  169.6969 C.ar    1  UNL1        0.0553
     14 N         140.5974  140.4395  171.1883 N.pl3   1  UNL1       -0.3563
     15 C         141.8513  140.4943  168.9135 C.ar    1  UNL1        0.0709
     16 CL        143.1192  140.8702  169.6214 Cl      1  UNL1       -0.0810
     17 C         141.8443  140.3337  167.4221 C.ar    1  UNL1        0.0202
     18 C         140.5764  139.9578  166.7142 C.ar    1  UNL1        0.0882
     19 H         139.7698  140.2982  171.7025 H       1  UNL1        0.1424
     20 H         141.4295  140.6863  171.6529 H       1  UNL1        0.1424
     21 C         137.3910  138.0487  167.0763 C.3     1  UNL1        0.2525
     22 O         138.0477  139.3665  166.7897 O.3     1  UNL1       -0.4712
     23 O         140.6356  142.4103  162.6781 O.3     1  UNL1       -0.3505
     24 C         142.1040  142.4288  162.9839 C.3     1  UNL1        0.1741
     25 C         139.3783  139.6574  158.4544 C.3     1  UNL1        0.0722
     26 C         140.1978  138.5773  157.8125 C.3     1  UNL1        0.0194
     27 C         139.6233  137.7686  156.6874 C.3     1  UNL1        0.0229
     28 C         140.4427  136.6885  156.0455 C.3     1  UNL1        0.0934
     29 N         141.8366  136.4173  156.5286 N.am    1  UNL1       -0.2796
     30 C         142.6560  135.3372  155.8867 C.2     1  UNL1        0.2247
     31 O         144.0500  135.0660  156.3699 O.2     1  UNL1       -0.2749
     32 C         142.4111  137.2261  157.6537 C.3     1  UNL1        0.0934
     33 C         141.5917  138.3061  158.2957 C.3     1  UNL1        0.0229
     34 C         142.0816  134.5284  154.7616 C.3     1  UNL1        0.0691
     35 C         142.4110  135.6317  153.8003 C.3     1  UNL1        0.0091
     36 C         141.7521  133.4252  155.7229 C.3     1  UNL1        0.0091
     37 C         141.5071  133.7197  153.6365 C.3     1  UNL1        0.0091
@<TRIPOS>BOND
     1    21    22    1
     2    22    11    1
     3    11    12   ar
     4    12    13   ar
     5    13    14    1
     6    13    15   ar
     7    15    16    1
     8    15    17   ar
     9    17    18   ar
    10    18     7    1
    11     7     8    2
    12     7     9   am
    13     1     9    1
    14     1     2    1
    15     2     3    1
    16     3     4    1
    17     4    25    1
    18    25    26    1
    19    26    27    1
    20    27    28    1
    21    28    29    1
    22    29    30   am
    23    30    31    2
    24    30    34    1
    25    34    35    1
    26    34    36    1
    27    34    37    1
    28    29    32    1
    29    32    33    1
    30     4     5    1
    31     5     6    1
    32     6    23    1
    33    23    24    1
    34    18    11   ar
    35     6     1    1
    36    33    26    1
    37    14    19    1
    38    14    20    1
    39     9    10    1
@<TRIPOS>MOLECULE
*****
 37 39 0 0 0
SMALL
GASTEIGER

@<TRIPOS>ATOM
      1 C         140.8494  138.9482  160.1916 C.3     1  UNL1        0.1017
      2 C         139.6691  138.6251  159.3240 C.3     1  UNL1        0.0394
      3 C         139.8806  138.0787  157.9431 C.3     1  UNL1        0.0739
      4 N         141.2722  137.8555  157.4298 N.3     1  UNL1       -0.2705
      5 C         142.4524  138.1786  158.2973 C.3     1  UNL1        0.1037
      6 C         142.2411  138.7249  159.6781 C.3     1  UNL1        0.1490
      7 C         140.6512  138.5711  162.7545 C.2     1  UNL1        0.2488
      8 O         140.8757  137.1014  162.5556 O.2     1  UNL1       -0.2700
      9 N         140.6381  139.4944  161.5724 N.am    1  UNL1       -0.2999
     10 H         140.4907  140.4591  161.7030 H       1  UNL1        0.1498
     11 C         139.1396  139.7754  164.4907 C.ar    1  UNL1        0.1443
     12 C         138.9283  140.3217  165.8716 C.ar    1  UNL1        0.0520
     13 C         140.0172  140.2101  166.8971 C.ar    1  UNL1        0.0553
     14 N         139.8059  140.7564  168.2780 N.pl3   1  UNL1       -0.3563
     15 C         141.3175  139.5521  166.5418 C.ar    1  UNL1        0.0709
     16 CL        142.4065  139.4404  167.5673 Cl      1  UNL1       -0.0810
     17 C         141.5288  139.0058  165.1609 C.ar    1  UNL1        0.0202
     18 C         140.4399  139.1174  164.1354 C.ar    1  UNL1        0.0882
     19 H         138.9525  141.1883  168.5113 H       1  UNL1        0.1424
     20 H         140.5206  140.6832  168.9511 H       1  UNL1        0.1424
     21 C         137.4428  141.2238  163.1592 C.3     1  UNL1        0.2525
     22 O         138.0506  139.8871  163.4652 O.3     1  UNL1       -0.4712
     23 O         143.4213  139.0480  160.5457 O.3     1  UNL1       -0.3505
     24 C         144.0534  137.9753  161.3820 C.3     1  UNL1        0.1741
     25 C         141.4835  137.3092  156.0489 C.3     1  UNL1        0.0722
     26 C         142.0472  135.9313  155.8656 C.3     1  UNL1        0.0194
     27 C         141.2260  134.8676  155.1992 C.3     1  UNL1        0.0229
     28 C         141.7897  133.4897  155.0159 C.3     1  UNL1        0.0934
     29 N         143.1746  133.1755  155.4990 N.am    1  UNL1       -0.2796
     30 C         143.7383  131.7976  155.3157 C.2     1  UNL1        0.2247
     31 O         145.1232  131.4835  155.7988 O.2     1  UNL1       -0.2749
     32 C         143.9958  134.2393  156.1654 C.3     1  UNL1        0.0934
     33 C         143.4321  135.6172  156.3487 C.3     1  UNL1        0.0229
     34 C         142.9171  130.7339  154.6493 C.3     1  UNL1        0.0691
     35 C         143.4008  131.2005  153.3083 C.3     1  UNL1        0.0091
     36 C         142.4334  130.2672  155.9902 C.3     1  UNL1        0.0091
     37 C         142.0960  129.6701  153.9829 C.3     1  UNL1        0.0091
@<TRIPOS>BOND
     1    21    22    1
     2    22    11    1
     3    11    12   ar
     4    12    13   ar
     5    13    14    1
     6    13    15   ar
     7    15    16    1
     8    15    17   ar
     9    17    18   ar
    10    18     7    1
    11     7     8    2
    12     7     9   am
    13     1     9    1
    14     1     2    1
    15     2     3    1
    16     3     4    1
    17     4    25    1
    18    25    26    1
    19    26    27    1
    20    27    28    1
    21    28    29    1
    22    29    30   am
    23    30    31    2
    24    30    34    1
    25    34    35    1
    26    34    36    1
    27    34    37    1
    28    29    32    1
    29    32    33    1
    30     4     5    1
    31     5     6    1
    32     6    23    1
    33    23    24    1
    34    18    11   ar
    35     6     1    1
    36    33    26    1
    37    14    19    1
    38    14    20    1
    39     9    10    1
