@<TRIPOS>MOLECULE
*****
 28 30 0 0 0
SMALL
GASTEIGER

@<TRIPOS>ATOM
      1 C         137.4235  138.3683  167.2620 C.3     1  UNL1        0.0521
      2 C         138.7479  139.0704  167.2049 C.ar    1  UNL1        0.0606
      3 C         139.4887  139.1695  165.9044 C.ar    1  UNL1        0.0290
      4 C         140.8130  139.8716  165.8472 C.ar    1  UNL1        0.0475
      5 C         141.3965  140.4746  167.0906 C.ar    1  UNL1        0.0309
      6 C         142.7208  141.1767  167.0334 C.ar    1  UNL1        0.0027
      7 C         143.3042  141.7797  168.2767 C.ar    1  UNL1        0.0003
      8 C         142.5634  141.6806  169.5773 C.ar    1  UNL1        0.0060
      9 C         141.2391  140.9785  169.6344 C.ar    1  UNL1        0.0708
     10 C         140.6557  140.3755  168.3911 C.ar    1  UNL1        0.0864
     11 N         139.3313  139.6734  168.4482 N.ar    1  UNL1       -0.2494
     12 C         140.4983  140.8795  170.9349 C.2     1  UNL1        0.2442
     13 N         139.8103  139.6006  171.3106 N.am    1  UNL1       -0.3253
     14 O         140.4454  142.0592  171.8597 O.2     1  UNL1       -0.2703
     15 H         139.8450  138.8263  170.7037 H       1  UNL1        0.1453
     16 H         139.3240  139.5356  172.1642 H       1  UNL1        0.1453
     17 N         141.5539  139.9706  164.5467 N.pl3   1  UNL1       -0.3289
     18 H         142.2410  139.3032  164.3195 H       1  UNL1        0.1471
     19 C         141.2478  141.0866  163.5923 C.3     1  UNL1        0.1160
     20 C         139.9577  141.8425  163.7112 C.ar    1  UNL1        0.0194
     21 C         138.7301  141.3465  163.0061 C.ar    1  UNL1        0.0562
     22 CL        138.7927  140.0947  162.1822 Cl      1  UNL1       -0.0825
     23 C         137.4400  142.1024  163.1249 C.ar    1  UNL1        0.0120
     24 C         137.3774  143.3544  163.9489 C.ar    1  UNL1        0.0131
     25 C         138.6049  143.8503  164.6539 C.ar    1  UNL1        0.0680
     26 CL        138.5424  145.1022  165.4779 Cl      1  UNL1       -0.0814
     27 C         139.8951  143.0944  164.5351 C.ar    1  UNL1        0.0666
     28 CL        141.1227  143.5904  165.2402 Cl      1  UNL1       -0.0816
@<TRIPOS>BOND
     1     1     2    1
     2     2     3   ar
     3     3     4   ar
     4     4    17    1
     5    17    19    1
     6    19    20    1
     7    20    21   ar
     8    21    22    1
     9    21    23   ar
    10    23    24   ar
    11    24    25   ar
    12    25    26    1
    13    25    27   ar
    14    27    28    1
    15     4     5   ar
    16     5     6   ar
    17     6     7   ar
    18     7     8   ar
    19     8     9   ar
    20     9    12    1
    21    12    13   am
    22    12    14    2
    23     9    10   ar
    24    10    11   ar
    25    11     2   ar
    26    27    20   ar
    27    10     5   ar
    28    17    18    1
    29    13    15    1
    30    13    16    1
@<TRIPOS>MOLECULE
*****
 28 30 0 0 0
SMALL
GASTEIGER

@<TRIPOS>ATOM
      1 C         136.9750  137.9301  167.6686 C.3     1  UNL1        0.0521
      2 C         138.0686  138.9088  167.3579 C.ar    1  UNL1        0.0606
      3 C         138.4018  139.2332  165.9318 C.ar    1  UNL1        0.0290
      4 C         139.4953  140.2118  165.6211 C.ar    1  UNL1        0.0475
      5 C         140.2556  140.8660  166.7365 C.ar    1  UNL1        0.0309
      6 C         141.3491  141.8446  166.4257 C.ar    1  UNL1        0.0027
      7 C         142.1094  142.4987  167.5411 C.ar    1  UNL1        0.0003
      8 C         141.7762  142.1742  168.9672 C.ar    1  UNL1        0.0060
      9 C         140.6827  141.1956  169.2779 C.ar    1  UNL1        0.0708
     10 C         139.9224  140.5415  168.1626 C.ar    1  UNL1        0.0864
     11 N         138.8289  139.5629  168.4733 N.ar    1  UNL1       -0.2494
     12 C         140.3495  140.8712  170.7040 C.2     1  UNL1        0.2442
     13 N         140.0160  139.4618  171.0943 N.am    1  UNL1       -0.3253
     14 O         140.3499  141.9561  171.7398 O.2     1  UNL1       -0.2703
     15 H         140.0158  138.7497  170.4144 H       1  UNL1        0.1453
     16 H         139.7973  139.2488  172.0302 H       1  UNL1        0.1453
     17 N         139.8285  140.5363  164.1950 N.pl3   1  UNL1       -0.3289
     18 H         139.4125  141.3137  163.7570 H       1  UNL1        0.1471
     19 C         140.7954  139.6764  163.4364 C.3     1  UNL1        0.1160
     20 C         142.2720  139.8724  163.6132 C.ar    1  UNL1        0.0194
     21 C         143.0259  139.0375  164.6056 C.ar    1  UNL1        0.0562
     22 CL        142.3032  138.0066  165.4210 Cl      1  UNL1       -0.0825
     23 C         144.5025  139.2336  164.7824 C.ar    1  UNL1        0.0120
     24 C         145.2251  140.2645  163.9669 C.ar    1  UNL1        0.0131
     25 C         144.4712  141.0994  162.9746 C.ar    1  UNL1        0.0680
     26 CL        145.1939  142.1304  162.1592 Cl      1  UNL1       -0.0814
     27 C         142.9946  140.9033  162.7978 C.ar    1  UNL1        0.0666
     28 CL        142.2407  141.7382  161.8055 Cl      1  UNL1       -0.0816
@<TRIPOS>BOND
     1     1     2    1
     2     2     3   ar
     3     3     4   ar
     4     4    17    1
     5    17    19    1
     6    19    20    1
     7    20    21   ar
     8    21    22    1
     9    21    23   ar
    10    23    24   ar
    11    24    25   ar
    12    25    26    1
    13    25    27   ar
    14    27    28    1
    15     4     5   ar
    16     5     6   ar
    17     6     7   ar
    18     7     8   ar
    19     8     9   ar
    20     9    12    1
    21    12    13   am
    22    12    14    2
    23     9    10   ar
    24    10    11   ar
    25    11     2   ar
    26    27    20   ar
    27    10     5   ar
    28    17    18    1
    29    13    15    1
    30    13    16    1
@<TRIPOS>MOLECULE
*****
 28 30 0 0 0
SMALL
GASTEIGER

@<TRIPOS>ATOM
      1 C         137.0987  138.2965  167.4635 C.3     1  UNL1        0.0521
      2 C         138.3968  139.0225  167.2687 C.ar    1  UNL1        0.0606
      3 C         139.0110  139.1075  165.9029 C.ar    1  UNL1        0.0290
      4 C         140.3090  139.8334  165.7081 C.ar    1  UNL1        0.0475
      5 C         140.9930  140.4745  166.8792 C.ar    1  UNL1        0.0309
      6 C         142.2910  141.2004  166.6844 C.ar    1  UNL1        0.0027
      7 C         142.9749  141.8414  167.8554 C.ar    1  UNL1        0.0003
      8 C         142.3607  141.7564  169.2213 C.ar    1  UNL1        0.0060
      9 C         141.0627  141.0304  169.4161 C.ar    1  UNL1        0.0708
     10 C         140.3788  140.3895  168.2450 C.ar    1  UNL1        0.0864
     11 N         139.0807  139.6634  168.4398 N.ar    1  UNL1       -0.2494
     12 C         140.4485  140.9454  170.7819 C.2     1  UNL1        0.2442
     13 N         139.8270  139.6617  171.2462 N.am    1  UNL1       -0.3253
     14 O         140.4558  142.1442  171.6835 O.2     1  UNL1       -0.2703
     15 H         139.8221  138.8749  170.6545 H       1  UNL1        0.1453
     16 H         139.4239  139.6059  172.1427 H       1  UNL1        0.1453
     17 N         140.9232  139.9184  164.3422 N.pl3   1  UNL1       -0.3289
     18 H         141.6485  139.3026  164.0895 H       1  UNL1        0.1471
     19 C         140.4323  140.9417  163.3615 C.3     1  UNL1        0.1160
     20 C         140.8224  142.3813  163.5212 C.ar    1  UNL1        0.0194
     21 C         139.8261  143.3751  164.0407 C.ar    1  UNL1        0.0562
     22 CL        138.4399  142.9293  164.4006 Cl      1  UNL1       -0.0825
     23 C         140.2162  144.8147  164.2004 C.ar    1  UNL1        0.0120
     24 C         141.6026  145.2604  163.8405 C.ar    1  UNL1        0.0131
     25 C         142.5987  144.2666  163.3210 C.ar    1  UNL1        0.0680
     26 CL        143.9851  144.7124  162.9611 Cl      1  UNL1       -0.0814
     27 C         142.2086  142.8270  163.1613 C.ar    1  UNL1        0.0666
     28 CL        143.2049  141.8332  162.6418 Cl      1  UNL1       -0.0816
@<TRIPOS>BOND
     1     1     2    1
     2     2     3   ar
     3     3     4   ar
     4     4    17    1
     5    17    19    1
     6    19    20    1
     7    20    21   ar
     8    21    22    1
     9    21    23   ar
    10    23    24   ar
    11    24    25   ar
    12    25    26    1
    13    25    27   ar
    14    27    28    1
    15     4     5   ar
    16     5     6   ar
    17     6     7   ar
    18     7     8   ar
    19     8     9   ar
    20     9    12    1
    21    12    13   am
    22    12    14    2
    23     9    10   ar
    24    10    11   ar
    25    11     2   ar
    26    27    20   ar
    27    10     5   ar
    28    17    18    1
    29    13    15    1
    30    13    16    1
@<TRIPOS>MOLECULE
*****
 28 30 0 0 0
SMALL
GASTEIGER

@<TRIPOS>ATOM
      1 C         137.9238  138.7537  166.9710 C.3     1  UNL1        0.0521
      2 C         139.1875  139.5540  167.0846 C.ar    1  UNL1        0.0606
      3 C         139.9784  139.8855  165.8539 C.ar    1  UNL1        0.0290
      4 C         141.2420  140.6858  165.9674 C.ar    1  UNL1        0.0475
      5 C         141.7147  141.1546  167.3116 C.ar    1  UNL1        0.0309
      6 C         142.9783  141.9548  167.4251 C.ar    1  UNL1        0.0027
      7 C         143.4510  142.4235  168.7692 C.ar    1  UNL1        0.0003
      8 C         142.6601  142.0920  169.9999 C.ar    1  UNL1        0.0060
      9 C         141.3965  141.2917  169.8864 C.ar    1  UNL1        0.0708
     10 C         140.9238  140.8230  168.5423 C.ar    1  UNL1        0.0864
     11 N         139.6602  140.0227  168.4287 N.ar    1  UNL1       -0.2494
     12 C         140.6056  140.9602  171.1171 C.2     1  UNL1        0.2442
     13 N         140.0047  139.5952  171.2774 N.am    1  UNL1       -0.3253
     14 O         140.4156  141.9936  172.1875 O.2     1  UNL1       -0.2703
     15 H         140.1294  138.9169  170.5748 H       1  UNL1        0.1453
     16 H         139.4856  139.3776  172.0851 H       1  UNL1        0.1453
     17 N         142.0328  141.0173  164.7367 N.pl3   1  UNL1       -0.3289
     18 H         142.6837  140.3701  164.3806 H       1  UNL1        0.1471
     19 C         141.8322  142.3349  164.0486 C.3     1  UNL1        0.1160
     20 C         140.4828  142.6986  163.5036 C.ar    1  UNL1        0.0194
     21 C         139.5015  143.4390  164.3632 C.ar    1  UNL1        0.0562
     22 CL        139.8694  143.8156  165.7677 Cl      1  UNL1       -0.0825
     23 C         138.1521  143.8027  163.8182 C.ar    1  UNL1        0.0120
     24 C         137.7841  143.4260  162.4136 C.ar    1  UNL1        0.0131
     25 C         138.7655  142.6857  161.5541 C.ar    1  UNL1        0.0680
     26 CL        138.3975  142.3090  160.1495 Cl      1  UNL1       -0.0814
     27 C         140.1149  142.3220  162.0991 C.ar    1  UNL1        0.0666
     28 CL        141.0962  141.5816  161.2394 Cl      1  UNL1       -0.0816
@<TRIPOS>BOND
     1     1     2    1
     2     2     3   ar
     3     3     4   ar
     4     4    17    1
     5    17    19    1
     6    19    20    1
     7    20    21   ar
     8    21    22    1
     9    21    23   ar
    10    23    24   ar
    11    24    25   ar
    12    25    26    1
    13    25    27   ar
    14    27    28    1
    15     4     5   ar
    16     5     6   ar
    17     6     7   ar
    18     7     8   ar
    19     8     9   ar
    20     9    12    1
    21    12    13   am
    22    12    14    2
    23     9    10   ar
    24    10    11   ar
    25    11     2   ar
    26    27    20   ar
    27    10     5   ar
    28    17    18    1
    29    13    15    1
    30    13    16    1
@<TRIPOS>MOLECULE
*****
 28 30 0 0 0
SMALL
GASTEIGER

@<TRIPOS>ATOM
      1 C         145.1004  142.0648  162.1979 C.3     1  UNL1        0.0521
      2 C         143.9332  142.3818  163.0851 C.ar    1  UNL1        0.0606
      3 C         143.9406  141.9431  164.5195 C.ar    1  UNL1        0.0290
      4 C         142.7734  142.2601  165.4068 C.ar    1  UNL1        0.0475
      5 C         141.5988  143.0157  164.8596 C.ar    1  UNL1        0.0309
      6 C         140.4316  143.3327  165.7469 C.ar    1  UNL1        0.0027
      7 C         139.2571  144.0883  165.1997 C.ar    1  UNL1        0.0003
      8 C         139.2497  144.5270  163.7653 C.ar    1  UNL1        0.0060
      9 C         140.4168  144.2100  162.8780 C.ar    1  UNL1        0.0708
     10 C         141.5914  143.4544  163.4252 C.ar    1  UNL1        0.0864
     11 N         142.7586  143.1374  162.5379 N.ar    1  UNL1       -0.2494
     12 C         140.4095  144.6487  161.4436 C.2     1  UNL1        0.2442
     13 N         141.5448  145.4667  160.9037 N.am    1  UNL1       -0.3253
     14 O         139.2667  144.2693  160.5492 O.2     1  UNL1       -0.2703
     15 H         142.2949  145.7158  161.4907 H       1  UNL1        0.1453
     16 H         141.5400  145.7546  159.9622 H       1  UNL1        0.1453
     17 N         142.7808  141.8214  166.8412 N.pl3   1  UNL1       -0.3289
     18 H         142.9388  142.4793  167.5563 H       1  UNL1        0.1471
     19 C         142.5475  140.3804  167.1860 C.3     1  UNL1        0.1160
     20 C         141.4455  139.6171  166.5130 C.ar    1  UNL1        0.0194
     21 C         140.0266  139.7913  166.9674 C.ar    1  UNL1        0.0562
     22 CL        139.7097  140.7287  168.0947 Cl      1  UNL1       -0.0825
     23 C         138.9245  139.0280  166.2945 C.ar    1  UNL1        0.0120
     24 C         139.2414  138.0905  165.1671 C.ar    1  UNL1        0.0131
     25 C         140.6603  137.9164  164.7128 C.ar    1  UNL1        0.0680
     26 CL        140.9771  136.9789  163.5855 Cl      1  UNL1       -0.0814
     27 C         141.7623  138.6797  165.3857 C.ar    1  UNL1        0.0666
     28 CL        143.1812  138.5055  164.9314 Cl      1  UNL1       -0.0816
@<TRIPOS>BOND
     1     1     2    1
     2     2     3   ar
     3     3     4   ar
     4     4    17    1
     5    17    19    1
     6    19    20    1
     7    20    21   ar
     8    21    22    1
     9    21    23   ar
    10    23    24   ar
    11    24    25   ar
    12    25    26    1
    13    25    27   ar
    14    27    28    1
    15     4     5   ar
    16     5     6   ar
    17     6     7   ar
    18     7     8   ar
    19     8     9   ar
    20     9    12    1
    21    12    13   am
    22    12    14    2
    23     9    10   ar
    24    10    11   ar
    25    11     2   ar
    26    27    20   ar
    27    10     5   ar
    28    17    18    1
    29    13    15    1
    30    13    16    1
@<TRIPOS>MOLECULE
*****
 28 30 0 0 0
SMALL
GASTEIGER

@<TRIPOS>ATOM
      1 C         137.7022  138.7233  167.1727 C.3     1  UNL1        0.0521
      2 C         139.0125  139.4530  167.1460 C.ar    1  UNL1        0.0606
      3 C         139.8791  139.3939  165.9231 C.ar    1  UNL1        0.0290
      4 C         141.1894  140.1236  165.8964 C.ar    1  UNL1        0.0475
      5 C         141.6331  140.9124  167.0927 C.ar    1  UNL1        0.0309
      6 C         142.9434  141.6420  167.0660 C.ar    1  UNL1        0.0027
      7 C         143.3870  142.4307  168.2623 C.ar    1  UNL1        0.0003
      8 C         142.5204  142.4898  169.4852 C.ar    1  UNL1        0.0060
      9 C         141.2102  141.7602  169.5118 C.ar    1  UNL1        0.0708
     10 C         140.7665  140.9714  168.3156 C.ar    1  UNL1        0.0864
     11 N         139.4562  140.2417  168.3423 N.ar    1  UNL1       -0.2494
     12 C         140.3436  141.8193  170.7348 C.2     1  UNL1        0.2442
     13 N         139.1702  142.7527  170.7781 N.am    1  UNL1       -0.3253
     14 O         140.6503  140.9449  171.9143 O.2     1  UNL1       -0.2703
     15 H         138.9689  143.3266  170.0039 H       1  UNL1        0.1453
     16 H         138.6015  142.7915  171.5808 H       1  UNL1        0.1453
     17 N         142.0560  140.0645  164.6735 N.pl3   1  UNL1       -0.3289
     18 H         142.8716  139.5131  164.6744 H       1  UNL1        0.1471
     19 C         141.6800  140.8455  163.4494 C.3     1  UNL1        0.1160
     20 C         141.1277  142.2335  163.5856 C.ar    1  UNL1        0.0194
     21 C         142.0502  143.3841  163.8598 C.ar    1  UNL1        0.0562
     22 CL        143.5249  143.1467  163.9978 Cl      1  UNL1       -0.0825
     23 C         141.4980  144.7721  163.9959 C.ar    1  UNL1        0.0120
     24 C         140.0233  145.0095  163.8579 C.ar    1  UNL1        0.0131
     25 C         139.1009  143.8589  163.5837 C.ar    1  UNL1        0.0680
     26 CL        137.6262  144.0962  163.4457 Cl      1  UNL1       -0.0814
     27 C         139.6531  142.4709  163.4475 C.ar    1  UNL1        0.0666
     28 CL        138.7306  141.3202  163.1733 Cl      1  UNL1       -0.0816
@<TRIPOS>BOND
     1     1     2    1
     2     2     3   ar
     3     3     4   ar
     4     4    17    1
     5    17    19    1
     6    19    20    1
     7    20    21   ar
     8    21    22    1
     9    21    23   ar
    10    23    24   ar
    11    24    25   ar
    12    25    26    1
    13    25    27   ar
    14    27    28    1
    15     4     5   ar
    16     5     6   ar
    17     6     7   ar
    18     7     8   ar
    19     8     9   ar
    20     9    12    1
    21    12    13   am
    22    12    14    2
    23     9    10   ar
    24    10    11   ar
    25    11     2   ar
    26    27    20   ar
    27    10     5   ar
    28    17    18    1
    29    13    15    1
    30    13    16    1
@<TRIPOS>MOLECULE
*****
 28 30 0 0 0
SMALL
GASTEIGER

@<TRIPOS>ATOM
      1 C         144.4326  143.9076  164.7107 C.3     1  UNL1        0.0521
      2 C         142.9793  143.5375  164.7398 C.ar    1  UNL1        0.0606
      3 C         142.4780  142.5455  165.7471 C.ar    1  UNL1        0.0290
      4 C         141.0248  142.1753  165.7763 C.ar    1  UNL1        0.0475
      5 C         140.0726  142.7971  164.7981 C.ar    1  UNL1        0.0309
      6 C         138.6193  142.4270  164.8273 C.ar    1  UNL1        0.0027
      7 C         137.6673  143.0488  163.8491 C.ar    1  UNL1        0.0003
      8 C         138.1685  144.0408  162.8418 C.ar    1  UNL1        0.0060
      9 C         139.6218  144.4110  162.8126 C.ar    1  UNL1        0.0708
     10 C         140.5738  143.7892  163.7908 C.ar    1  UNL1        0.0864
     11 N         142.0272  144.1593  163.7617 N.ar    1  UNL1       -0.2494
     12 C         140.1230  145.4030  161.8053 C.2     1  UNL1        0.2442
     13 N         141.4705  145.2151  161.1739 N.am    1  UNL1       -0.3253
     14 O         139.2767  146.5830  161.4295 O.2     1  UNL1       -0.2703
     15 H         142.0260  144.4406  161.4206 H       1  UNL1        0.1453
     16 H         141.7995  145.8662  160.5128 H       1  UNL1        0.1453
     17 N         140.5236  141.1833  166.7836 N.pl3   1  UNL1       -0.3289
     18 H         139.9786  141.4874  167.5450 H       1  UNL1        0.1471
     19 C         140.8527  139.7278  166.6309 C.3     1  UNL1        0.1160
     20 C         140.5852  139.0309  165.3298 C.ar    1  UNL1        0.0194
     21 C         139.1937  138.5855  164.9898 C.ar    1  UNL1        0.0562
     22 CL        138.0699  138.8370  165.9509 Cl      1  UNL1       -0.0825
     23 C         138.9262  137.8885  163.6888 C.ar    1  UNL1        0.0120
     24 C         140.0502  137.6370  162.7277 C.ar    1  UNL1        0.0131
     25 C         141.4415  138.0825  163.0677 C.ar    1  UNL1        0.0680
     26 CL        142.5655  137.8310  162.1067 Cl      1  UNL1       -0.0814
     27 C         141.7090  138.7794  164.3688 C.ar    1  UNL1        0.0666
     28 CL        143.1005  139.2248  164.7088 Cl      1  UNL1       -0.0816
@<TRIPOS>BOND
     1     1     2    1
     2     2     3   ar
     3     3     4   ar
     4     4    17    1
     5    17    19    1
     6    19    20    1
     7    20    21   ar
     8    21    22    1
     9    21    23   ar
    10    23    24   ar
    11    24    25   ar
    12    25    26    1
    13    25    27   ar
    14    27    28    1
    15     4     5   ar
    16     5     6   ar
    17     6     7   ar
    18     7     8   ar
    19     8     9   ar
    20     9    12    1
    21    12    13   am
    22    12    14    2
    23     9    10   ar
    24    10    11   ar
    25    11     2   ar
    26    27    20   ar
    27    10     5   ar
    28    17    18    1
    29    13    15    1
    30    13    16    1
@<TRIPOS>MOLECULE
*****
 28 30 0 0 0
SMALL
GASTEIGER

@<TRIPOS>ATOM
      1 C         137.6946  143.3766  162.9193 C.3     1  UNL1        0.0521
      2 C         139.0009  143.2040  163.6362 C.ar    1  UNL1        0.0606
      3 C         139.0179  142.7424  165.0633 C.ar    1  UNL1        0.0290
      4 C         140.3241  142.5697  165.7802 C.ar    1  UNL1        0.0475
      5 C         141.6134  142.8587  165.0700 C.ar    1  UNL1        0.0309
      6 C         142.9196  142.6860  165.7869 C.ar    1  UNL1        0.0027
      7 C         144.2088  142.9750  165.0767 C.ar    1  UNL1        0.0003
      8 C         144.1918  143.4366  163.6496 C.ar    1  UNL1        0.0060
      9 C         142.8856  143.6092  162.9327 C.ar    1  UNL1        0.0708
     10 C         141.5964  143.3203  163.6429 C.ar    1  UNL1        0.0864
     11 N         140.2901  143.4929  162.9260 N.ar    1  UNL1       -0.2494
     12 C         142.8686  144.0708  161.5056 C.2     1  UNL1        0.2442
     13 N         141.9788  145.2065  161.0952 N.am    1  UNL1       -0.3253
     14 O         143.7413  143.3967  160.4888 O.2     1  UNL1       -0.2703
     15 H         141.4060  145.6490  161.7625 H       1  UNL1        0.1453
     16 H         141.9677  145.5095  160.1586 H       1  UNL1        0.1453
     17 N         140.3411  142.1081  167.2073 N.pl3   1  UNL1       -0.3289
     18 H         140.4787  142.7585  167.9334 H       1  UNL1        0.1471
     19 C         140.1484  140.6556  167.5281 C.3     1  UNL1        0.1160
     20 C         140.5357  139.6085  166.5263 C.ar    1  UNL1        0.0194
     21 C         141.9565  139.1336  166.4489 C.ar    1  UNL1        0.0562
     22 CL        142.9899  139.7059  167.3733 Cl      1  UNL1       -0.0825
     23 C         142.3437  138.0865  165.4471 C.ar    1  UNL1        0.0120
     24 C         141.3102  137.5142  164.5227 C.ar    1  UNL1        0.0131
     25 C         139.8895  137.9891  164.6002 C.ar    1  UNL1        0.0680
     26 CL        138.8560  137.4168  163.6758 Cl      1  UNL1       -0.0814
     27 C         139.5022  139.0362  165.6020 C.ar    1  UNL1        0.0666
     28 CL        138.0814  139.5111  165.6793 Cl      1  UNL1       -0.0816
@<TRIPOS>BOND
     1     1     2    1
     2     2     3   ar
     3     3     4   ar
     4     4    17    1
     5    17    19    1
     6    19    20    1
     7    20    21   ar
     8    21    22    1
     9    21    23   ar
    10    23    24   ar
    11    24    25   ar
    12    25    26    1
    13    25    27   ar
    14    27    28    1
    15     4     5   ar
    16     5     6   ar
    17     6     7   ar
    18     7     8   ar
    19     8     9   ar
    20     9    12    1
    21    12    13   am
    22    12    14    2
    23     9    10   ar
    24    10    11   ar
    25    11     2   ar
    26    27    20   ar
    27    10     5   ar
    28    17    18    1
    29    13    15    1
    30    13    16    1
@<TRIPOS>MOLECULE
*****
 28 30 0 0 0
SMALL
GASTEIGER

@<TRIPOS>ATOM
      1 C         141.2479  141.5210  168.6168 C.3     1  UNL1        0.0521
      2 C         140.3715  141.2926  167.4211 C.ar    1  UNL1        0.0606
      3 C         139.9312  139.9027  167.0684 C.ar    1  UNL1        0.0290
      4 C         139.0548  139.6742  165.8727 C.ar    1  UNL1        0.0475
      5 C         138.6186  140.8357  165.0296 C.ar    1  UNL1        0.0309
      6 C         137.7422  140.6073  163.8340 C.ar    1  UNL1        0.0027
      7 C         137.3061  141.7688  162.9909 C.ar    1  UNL1        0.0003
      8 C         137.7463  143.1587  163.3436 C.ar    1  UNL1        0.0060
      9 C         138.6227  143.3871  164.5393 C.ar    1  UNL1        0.0708
     10 C         139.0589  142.2256  165.3823 C.ar    1  UNL1        0.0864
     11 N         139.9353  142.4540  166.5780 N.ar    1  UNL1       -0.2494
     12 C         139.0630  144.7770  164.8919 C.2     1  UNL1        0.2442
     13 N         140.1518  145.4417  164.1029 N.am    1  UNL1       -0.3253
     14 O         138.4144  145.5022  166.0336 O.2     1  UNL1       -0.2703
     15 H         140.5775  144.9658  163.3536 H       1  UNL1        0.1453
     16 H         140.4407  146.3540  164.3344 H       1  UNL1        0.1453
     17 N         138.6146  138.2843  165.5201 N.pl3   1  UNL1       -0.3289
     18 H         137.6985  137.9903  165.7289 H       1  UNL1        0.1471
     19 C         139.5700  137.3425  164.8493 C.3     1  UNL1        0.1160
     20 C         140.4284  137.8247  163.7177 C.ar    1  UNL1        0.0194
     21 C         139.8438  137.9764  162.3446 C.ar    1  UNL1        0.0562
     22 CL        138.4007  137.6458  162.1033 Cl      1  UNL1       -0.0825
     23 C         140.7022  138.4586  161.2130 C.ar    1  UNL1        0.0120
     24 C         142.1453  138.7892  161.4545 C.ar    1  UNL1        0.0131
     25 C         142.7299  138.6376  162.8275 C.ar    1  UNL1        0.0680
     26 CL        144.1730  138.9682  163.0690 Cl      1  UNL1       -0.0814
     27 C         141.8715  138.1553  163.9591 C.ar    1  UNL1        0.0666
     28 CL        142.4561  138.0037  165.3322 Cl      1  UNL1       -0.0816
@<TRIPOS>BOND
     1     1     2    1
     2     2     3   ar
     3     3     4   ar
     4     4    17    1
     5    17    19    1
     6    19    20    1
     7    20    21   ar
     8    21    22    1
     9    21    23   ar
    10    23    24   ar
    11    24    25   ar
    12    25    26    1
    13    25    27   ar
    14    27    28    1
    15     4     5   ar
    16     5     6   ar
    17     6     7   ar
    18     7     8   ar
    19     8     9   ar
    20     9    12    1
    21    12    13   am
    22    12    14    2
    23     9    10   ar
    24    10    11   ar
    25    11     2   ar
    26    27    20   ar
    27    10     5   ar
    28    17    18    1
    29    13    15    1
    30    13    16    1
