@<TRIPOS>MOLECULE
*****
 23 25 0 0 0
SMALL
GASTEIGER

@<TRIPOS>ATOM
      1 C         140.7929  142.8960  165.9232 C.2     1  UNL1        0.2520
      2 O         139.8301  143.8142  165.2305 O.2     1  UNL1       -0.2698
      3 N         142.1767  142.7086  165.3756 N.am    1  UNL1       -0.2762
      4 C         139.7392  140.8092  167.0569 C.ar    1  UNL1        0.1428
      5 C         139.3182  140.0783  168.2972 C.ar    1  UNL1        0.0370
      6 C         139.5297  140.7033  169.6443 C.ar    1  UNL1        0.0031
      7 C         140.1623  142.0592  169.7511 C.ar    1  UNL1        0.0003
      8 C         140.5833  142.7900  168.5107 C.ar    1  UNL1        0.0076
      9 C         140.3718  142.1650  167.1636 C.ar    1  UNL1        0.0875
     10 O         139.5277  140.1842  165.7098 O.3     1  UNL1       -0.4753
     11 C         139.0114  137.7056  165.1267 C.3     1  UNL1        0.0512
     12 C         138.5410  139.0660  165.5484 C.3     1  UNL1        0.2055
     13 C         142.5978  143.4395  164.1353 C.3     1  UNL1        0.0927
     14 C         142.3044  143.0235  162.7243 C.3     1  UNL1        0.0383
     15 C         142.9115  144.0416  161.8052 C.3     1  UNL1        0.0704
     16 N         143.5802  145.0869  162.6481 N.3     1  UNL1       -0.2960
     17 C         143.3863  144.7147  164.0882 C.3     1  UNL1        0.0887
     18 H         143.1603  145.9985  162.4666 H       1  UNL1        0.1233
     19 C         143.1395  141.7903  166.0684 C.3     1  UNL1        0.0936
     20 C         143.0246  140.3060  165.8845 C.3     1  UNL1        0.0199
     21 C         142.8896  139.3908  164.7037 C.3     1  UNL1        0.0017
     22 C         142.8621  138.2070  165.6244 C.3     1  UNL1        0.0001
     23 C         142.9970  139.1221  166.8052 C.3     1  UNL1        0.0017
@<TRIPOS>BOND
     1    11    12    1
     2    12    10    1
     3    10     4    1
     4     4     5   ar
     5     5     6   ar
     6     6     7   ar
     7     7     8   ar
     8     8     9   ar
     9     9     1    1
    10     1     2    2
    11     1     3   am
    12     3    19    1
    13    19    20    1
    14    20    21    1
    15    21    22    1
    16    22    23    1
    17    13     3    1
    18    13    14    1
    19    14    15    1
    20    15    16    1
    21    16    17    1
    22     9     4   ar
    23    23    20    1
    24    17    13    1
    25    16    18    1
@<TRIPOS>MOLECULE
*****
 23 25 0 0 0
SMALL
GASTEIGER

@<TRIPOS>ATOM
      1 C         139.0967  139.5230  166.9525 C.2     1  UNL1        0.2520
      2 O         138.1097  139.0453  167.9760 O.2     1  UNL1       -0.2698
      3 N         140.2885  140.3281  167.3784 N.am    1  UNL1       -0.2762
      4 C         138.3442  140.2343  164.5697 C.ar    1  UNL1        0.1428
      5 C         138.1393  139.9069  163.1203 C.ar    1  UNL1        0.0370
      6 C         138.4822  138.5409  162.6042 C.ar    1  UNL1        0.0031
      7 C         139.0298  137.5022  163.5375 C.ar    1  UNL1        0.0003
      8 C         139.2346  137.8296  164.9869 C.ar    1  UNL1        0.0076
      9 C         138.8918  139.1956  165.5030 C.ar    1  UNL1        0.0875
     10 O         138.0014  141.6004  165.0857 O.3     1  UNL1       -0.4753
     11 C         137.9016  144.1647  164.6805 C.3     1  UNL1        0.0512
     12 C         137.9408  142.7651  164.1425 C.3     1  UNL1        0.2055
     13 C         140.4934  140.6554  168.8278 C.3     1  UNL1        0.0927
     14 C         140.1862  141.9671  169.4873 C.3     1  UNL1        0.0383
     15 C         140.5444  141.8510  170.9393 C.3     1  UNL1        0.0704
     16 N         141.0730  140.4674  171.1771 N.3     1  UNL1       -0.2960
     17 C         141.0415  139.7286  169.8721 C.3     1  UNL1        0.0887
     18 H         140.4890  139.9866  171.8613 H       1  UNL1        0.1233
     19 C         141.2755  140.8058  166.3547 C.3     1  UNL1        0.0936
     20 C         142.4409  139.9408  165.9757 C.3     1  UNL1        0.0199
     21 C         143.4100  139.9086  164.8312 C.3     1  UNL1        0.0017
     22 C         144.0890  138.7175  165.4397 C.3     1  UNL1        0.0001
     23 C         143.1200  138.7497  166.5841 C.3     1  UNL1        0.0017
@<TRIPOS>BOND
     1    11    12    1
     2    12    10    1
     3    10     4    1
     4     4     5   ar
     5     5     6   ar
     6     6     7   ar
     7     7     8   ar
     8     8     9   ar
     9     9     1    1
    10     1     2    2
    11     1     3   am
    12     3    19    1
    13    19    20    1
    14    20    21    1
    15    21    22    1
    16    22    23    1
    17    13     3    1
    18    13    14    1
    19    14    15    1
    20    15    16    1
    21    16    17    1
    22     9     4   ar
    23    23    20    1
    24    17    13    1
    25    16    18    1
@<TRIPOS>MOLECULE
*****
 23 25 0 0 0
SMALL
GASTEIGER

@<TRIPOS>ATOM
      1 C         139.9072  140.0631  166.0789 C.2     1  UNL1        0.2520
      2 O         138.5823  139.7570  165.4460 O.2     1  UNL1       -0.2698
      3 N         141.1729  139.5603  165.4502 N.am    1  UNL1       -0.2762
      4 C         140.3495  142.3215  167.2849 C.ar    1  UNL1        0.1428
      5 C         140.4089  143.1305  168.5466 C.ar    1  UNL1        0.0370
      6 C         140.0855  142.4903  169.8640 C.ar    1  UNL1        0.0031
      7 C         139.7027  141.0411  169.9197 C.ar    1  UNL1        0.0003
      8 C         139.6433  140.2320  168.6581 C.ar    1  UNL1        0.0076
      9 C         139.9667  140.8722  167.3406 C.ar    1  UNL1        0.0875
     10 O         140.6728  142.9617  165.9675 O.3     1  UNL1       -0.4753
     11 C         138.8338  144.7388  165.5098 C.3     1  UNL1        0.0512
     12 C         139.5701  143.4969  165.1030 C.3     1  UNL1        0.2055
     13 C         141.1135  138.7512  164.1885 C.3     1  UNL1        0.0927
     14 C         140.9157  139.2914  162.8032 C.3     1  UNL1        0.0383
     15 C         140.9215  138.1340  161.8491 C.3     1  UNL1        0.0704
     16 N         141.1227  136.8783  162.6448 N.3     1  UNL1       -0.2960
     17 C         141.2414  137.2598  164.0906 C.3     1  UNL1        0.0887
     18 H         141.9750  136.4081  162.3398 H       1  UNL1        0.1233
     19 C         142.4979  139.8665  166.0831 C.3     1  UNL1        0.0936
     20 C         143.6730  140.2300  165.2247 C.3     1  UNL1        0.0199
     21 C         144.2510  141.5133  164.7059 C.3     1  UNL1        0.0017
     22 C         145.3349  140.7440  164.0106 C.3     1  UNL1        0.0001
     23 C         144.7569  139.4608  164.5294 C.3     1  UNL1        0.0017
@<TRIPOS>BOND
     1    11    12    1
     2    12    10    1
     3    10     4    1
     4     4     5   ar
     5     5     6   ar
     6     6     7   ar
     7     7     8   ar
     8     8     9   ar
     9     9     1    1
    10     1     2    2
    11     1     3   am
    12     3    19    1
    13    19    20    1
    14    20    21    1
    15    21    22    1
    16    22    23    1
    17    13     3    1
    18    13    14    1
    19    14    15    1
    20    15    16    1
    21    16    17    1
    22     9     4   ar
    23    23    20    1
    24    17    13    1
    25    16    18    1
@<TRIPOS>MOLECULE
*****
 23 25 0 0 0
SMALL
GASTEIGER

@<TRIPOS>ATOM
      1 C         143.0060  138.6077  166.3423 C.2     1  UNL1        0.2520
      2 O         144.1815  137.9219  166.9731 O.2     1  UNL1       -0.2698
      3 N         142.2161  139.6142  167.1252 N.am    1  UNL1       -0.2762
      4 C         143.4729  138.7665  163.7915 C.ar    1  UNL1        0.1428
      5 C         143.0873  138.4458  162.3778 C.ar    1  UNL1        0.0370
      6 C         141.8491  137.6455  162.1014 C.ar    1  UNL1        0.0031
      7 C         140.9966  137.1659  163.2385 C.ar    1  UNL1        0.0003
      8 C         141.3822  137.4867  164.6521 C.ar    1  UNL1        0.0076
      9 C         142.6204  138.2869  164.9286 C.ar    1  UNL1        0.0875
     10 O         144.7111  139.5668  164.0680 O.3     1  UNL1       -0.4753
     11 C         143.7208  141.9204  164.5474 C.3     1  UNL1        0.0512
     12 C         144.7134  141.0488  163.8367 C.3     1  UNL1        0.2055
     13 C         142.6016  139.9349  168.5389 C.3     1  UNL1        0.0927
     14 C         143.0708  141.2670  169.0442 C.3     1  UNL1        0.0383
     15 C         143.3448  141.1353  170.5130 C.3     1  UNL1        0.0704
     16 N         143.0451  139.7216  170.9155 N.3     1  UNL1       -0.2960
     17 C         142.5858  138.9798  169.6954 C.3     1  UNL1        0.0887
     18 H         142.3109  139.7116  171.6236 H       1  UNL1        0.1233
     19 C         141.0405  140.3000  166.4944 C.3     1  UNL1        0.0936
     20 C         139.6589  139.7480  166.6856 C.3     1  UNL1        0.0199
     21 C         138.5602  139.2983  165.7687 C.3     1  UNL1        0.0017
     22 C         137.7051  138.9674  166.9559 C.3     1  UNL1        0.0001
     23 C         138.8038  139.4171  167.8726 C.3     1  UNL1        0.0017
@<TRIPOS>BOND
     1    11    12    1
     2    12    10    1
     3    10     4    1
     4     4     5   ar
     5     5     6   ar
     6     6     7   ar
     7     7     8   ar
     8     8     9   ar
     9     9     1    1
    10     1     2    2
    11     1     3   am
    12     3    19    1
    13    19    20    1
    14    20    21    1
    15    21    22    1
    16    22    23    1
    17    13     3    1
    18    13    14    1
    19    14    15    1
    20    15    16    1
    21    16    17    1
    22     9     4   ar
    23    23    20    1
    24    17    13    1
    25    16    18    1
@<TRIPOS>MOLECULE
*****
 23 25 0 0 0
SMALL
GASTEIGER

@<TRIPOS>ATOM
      1 C         141.1748  140.0621  164.9571 C.2     1  UNL1        0.2520
      2 O         140.9587  140.9418  163.7615 O.2     1  UNL1       -0.2698
      3 N         142.5411  139.9449  165.5649 N.am    1  UNL1       -0.2762
      4 C         139.6345  137.9698  164.9707 C.ar    1  UNL1        0.1428
      5 C         138.4843  137.2074  165.5585 C.ar    1  UNL1        0.0370
      6 C         137.7240  137.7746  166.7205 C.ar    1  UNL1        0.0031
      7 C         138.1140  139.1044  167.2947 C.ar    1  UNL1        0.0003
      8 C         139.2642  139.8668  166.7069 C.ar    1  UNL1        0.0076
      9 C         140.0245  139.2996  165.5449 C.ar    1  UNL1        0.0875
     10 O         140.3948  137.4026  163.8088 O.3     1  UNL1       -0.4753
     11 C         138.5751  138.1634  162.1177 C.3     1  UNL1        0.0512
     12 C         139.9860  137.7437  162.4065 C.3     1  UNL1        0.2055
     13 C         143.6913  140.7073  164.9771 C.3     1  UNL1        0.0927
     14 C         143.9220  142.1848  165.0953 C.3     1  UNL1        0.0383
     15 C         145.1861  142.5168  164.3592 C.3     1  UNL1        0.0704
     16 N         145.7367  141.2446  163.7862 N.3     1  UNL1       -0.2960
     17 C         144.8129  140.1263  164.1681 C.3     1  UNL1        0.0887
     18 H         146.6676  141.0690  164.1643 H       1  UNL1        0.1233
     19 C         142.7571  139.0651  166.7605 C.3     1  UNL1        0.0936
     20 C         142.6623  139.6409  168.1423 C.3     1  UNL1        0.0199
     21 C         142.4739  139.0725  169.5177 C.3     1  UNL1        0.0017
     22 C         142.5282  140.4553  170.0965 C.3     1  UNL1        0.0001
     23 C         142.7166  141.0236  168.7212 C.3     1  UNL1        0.0017
@<TRIPOS>BOND
     1    11    12    1
     2    12    10    1
     3    10     4    1
     4     4     5   ar
     5     5     6   ar
     6     6     7   ar
     7     7     8   ar
     8     8     9   ar
     9     9     1    1
    10     1     2    2
    11     1     3   am
    12     3    19    1
    13    19    20    1
    14    20    21    1
    15    21    22    1
    16    22    23    1
    17    13     3    1
    18    13    14    1
    19    14    15    1
    20    15    16    1
    21    16    17    1
    22     9     4   ar
    23    23    20    1
    24    17    13    1
    25    16    18    1
@<TRIPOS>MOLECULE
*****
 23 25 0 0 0
SMALL
GASTEIGER

@<TRIPOS>ATOM
      1 C         142.7672  141.7269  166.0408 C.2     1  UNL1        0.2520
      2 O         143.5667  142.6189  165.1381 O.2     1  UNL1       -0.2698
      3 N         142.5355  140.2933  165.6653 N.am    1  UNL1       -0.2762
      4 C         140.7862  142.7702  167.3590 C.ar    1  UNL1        0.1428
      5 C         140.2183  143.3118  168.6373 C.ar    1  UNL1        0.0370
      6 C         141.0635  143.3518  169.8758 C.ar    1  UNL1        0.0031
      7 C         142.4766  142.8502  169.8361 C.ar    1  UNL1        0.0003
      8 C         143.0444  142.3086  168.5578 C.ar    1  UNL1        0.0076
      9 C         142.1992  142.2686  167.3192 C.ar    1  UNL1        0.0875
     10 O         139.9410  142.7302  166.1204 O.3     1  UNL1       -0.4753
     11 C         138.6439  144.9199  165.5984 C.3     1  UNL1        0.0512
     12 C         139.7631  143.9690  165.2935 C.3     1  UNL1        0.2055
     13 C         143.1034  139.7516  164.3871 C.3     1  UNL1        0.0927
     14 C         142.3140  139.2458  163.2162 C.3     1  UNL1        0.0383
     15 C         143.2831  138.8022  162.1607 C.3     1  UNL1        0.0704
     16 N         144.6714  139.0339  162.6792 N.3     1  UNL1       -0.2960
     17 C         144.5603  139.6207  164.0552 C.3     1  UNL1        0.0887
     18 H         145.1665  139.6812  162.0658 H       1  UNL1        0.1233
     19 C         141.7359  139.4013  166.5682 C.3     1  UNL1        0.0936
     20 C         140.2479  139.3073  166.4036 C.3     1  UNL1        0.0199
     21 C         139.3264  138.9386  165.2789 C.3     1  UNL1        0.0017
     22 C         138.1436  139.1744  166.1708 C.3     1  UNL1        0.0001
     23 C         139.0651  139.5431  167.2954 C.3     1  UNL1        0.0017
@<TRIPOS>BOND
     1    11    12    1
     2    12    10    1
     3    10     4    1
     4     4     5   ar
     5     5     6   ar
     6     6     7   ar
     7     7     8   ar
     8     8     9   ar
     9     9     1    1
    10     1     2    2
    11     1     3   am
    12     3    19    1
    13    19    20    1
    14    20    21    1
    15    21    22    1
    16    22    23    1
    17    13     3    1
    18    13    14    1
    19    14    15    1
    20    15    16    1
    21    16    17    1
    22     9     4   ar
    23    23    20    1
    24    17    13    1
    25    16    18    1
@<TRIPOS>MOLECULE
*****
 23 25 0 0 0
SMALL
GASTEIGER

@<TRIPOS>ATOM
      1 C         141.4535  141.7424  164.7562 C.2     1  UNL1        0.2520
      2 O         141.8818  143.1574  165.0096 O.2     1  UNL1       -0.2698
      3 N         140.2170  141.4653  163.9536 N.am    1  UNL1       -0.2762
      4 C         143.2959  139.9365  164.4483 C.ar    1  UNL1        0.1428
      5 C         144.1041  138.7985  164.9976 C.ar    1  UNL1        0.0370
      6 C         143.8782  138.3283  166.4039 C.ar    1  UNL1        0.0031
      7 C         142.8441  138.9960  167.2610 C.ar    1  UNL1        0.0003
      8 C         142.0359  140.1340  166.7118 C.ar    1  UNL1        0.0076
      9 C         142.2618  140.6043  165.3055 C.ar    1  UNL1        0.0875
     10 O         143.5218  140.4068  163.0420 O.3     1  UNL1       -0.4753
     11 C         145.6947  141.6757  163.6888 C.3     1  UNL1        0.0512
     12 C         144.5301  141.4817  162.7635 C.3     1  UNL1        0.2055
     13 C         139.4087  142.6033  163.4044 C.3     1  UNL1        0.0927
     14 C         138.1419  143.1498  163.9931 C.3     1  UNL1        0.0383
     15 C         137.6756  144.2788  163.1226 C.3     1  UNL1        0.0704
     16 N         138.6542  144.4302  161.9958 N.3     1  UNL1       -0.2960
     17 C         139.7253  143.3946  162.1700 C.3     1  UNL1        0.0887
     18 H         139.0672  145.3626  162.0188 H       1  UNL1        0.1233
     19 C         139.7887  140.0502  163.7002 C.3     1  UNL1        0.0936
     20 C         139.0859  139.2754  164.7752 C.3     1  UNL1        0.0199
     21 C         139.0336  137.8322  165.1809 C.3     1  UNL1        0.0017
     22 C         138.0919  138.1797  166.2955 C.3     1  UNL1        0.0001
     23 C         138.1441  139.6228  165.8899 C.3     1  UNL1        0.0017
@<TRIPOS>BOND
     1    11    12    1
     2    12    10    1
     3    10     4    1
     4     4     5   ar
     5     5     6   ar
     6     6     7   ar
     7     7     8   ar
     8     8     9   ar
     9     9     1    1
    10     1     2    2
    11     1     3   am
    12     3    19    1
    13    19    20    1
    14    20    21    1
    15    21    22    1
    16    22    23    1
    17    13     3    1
    18    13    14    1
    19    14    15    1
    20    15    16    1
    21    16    17    1
    22     9     4   ar
    23    23    20    1
    24    17    13    1
    25    16    18    1
@<TRIPOS>MOLECULE
*****
 23 25 0 0 0
SMALL
GASTEIGER

@<TRIPOS>ATOM
      1 C         141.8862  142.4333  166.4245 C.2     1  UNL1        0.2520
      2 O         143.3368  142.0592  166.3485 O.2     1  UNL1       -0.2698
      3 N         141.2701  143.2711  165.3435 N.am    1  UNL1       -0.2762
      4 C         140.4551  140.5934  167.5720 C.ar    1  UNL1        0.1428
      5 C         139.6206  140.1298  168.7290 C.ar    1  UNL1        0.0370
      6 C         139.3827  141.0424  169.8955 C.ar    1  UNL1        0.0031
      7 C         139.9793  142.4186  169.9049 C.ar    1  UNL1        0.0003
      8 C         140.8137  142.8823  168.7479 C.ar    1  UNL1        0.0076
      9 C         141.0517  141.9697  167.5815 C.ar    1  UNL1        0.0875
     10 O         140.6930  139.6808  166.4056 O.3     1  UNL1       -0.4753
     11 C         140.3378  139.9748  163.8488 C.3     1  UNL1        0.0512
     12 C         139.7778  139.7273  165.2181 C.3     1  UNL1        0.2055
     13 C         142.1045  143.7347  164.1865 C.3     1  UNL1        0.0927
     14 C         142.6320  142.8724  163.0783 C.3     1  UNL1        0.0383
     15 C         143.4115  143.7468  162.1414 C.3     1  UNL1        0.0704
     16 N         143.3658  145.1497  162.6706 N.3     1  UNL1       -0.2960
     17 C         142.5580  145.1422  163.9345 C.3     1  UNL1        0.0887
     18 H         142.9287  145.7645  161.9841 H       1  UNL1        0.1233
     19 C         139.8194  143.6452  165.4195 C.3     1  UNL1        0.0936
     20 C         138.9282  143.4379  164.2309 C.3     1  UNL1        0.0199
     21 C         137.7306  142.5829  163.9394 C.3     1  UNL1        0.0017
     22 C         137.6678  143.1449  162.5500 C.3     1  UNL1        0.0001
     23 C         138.8652  143.9998  162.8416 C.3     1  UNL1        0.0017
@<TRIPOS>BOND
     1    11    12    1
     2    12    10    1
     3    10     4    1
     4     4     5   ar
     5     5     6   ar
     6     6     7   ar
     7     7     8   ar
     8     8     9   ar
     9     9     1    1
    10     1     2    2
    11     1     3   am
    12     3    19    1
    13    19    20    1
    14    20    21    1
    15    21    22    1
    16    22    23    1
    17    13     3    1
    18    13    14    1
    19    14    15    1
    20    15    16    1
    21    16    17    1
    22     9     4   ar
    23    23    20    1
    24    17    13    1
    25    16    18    1
@<TRIPOS>MOLECULE
*****
 23 25 0 0 0
SMALL
GASTEIGER

@<TRIPOS>ATOM
      1 C         142.9172  139.3668  166.8332 C.2     1  UNL1        0.2520
      2 O         143.4346  138.3855  167.8428 O.2     1  UNL1       -0.2698
      3 N         142.2716  140.6418  167.2888 N.am    1  UNL1       -0.2762
      4 C         141.9253  138.3925  164.6384 C.ar    1  UNL1        0.1428
      5 C         142.0535  138.0988  163.1731 C.ar    1  UNL1        0.0370
      6 C         143.3020  138.4857  162.4371 C.ar    1  UNL1        0.0031
      7 C         144.4222  139.1663  163.1664 C.ar    1  UNL1        0.0003
      8 C         144.2939  139.4599  164.6318 C.ar    1  UNL1        0.0076
      9 C         143.0454  139.0731  165.3678 C.ar    1  UNL1        0.0875
     10 O         140.6768  138.0056  165.3744 O.3     1  UNL1       -0.4753
     11 C         138.6475  139.1612  166.5129 C.3     1  UNL1        0.0512
     12 C         139.4538  138.8691  165.2823 C.3     1  UNL1        0.2055
     13 C         142.1434  140.9355  168.7542 C.3     1  UNL1        0.0927
     14 C         141.0355  140.4717  169.6527 C.3     1  UNL1        0.0383
     15 C         141.3079  140.9942  171.0321 C.3     1  UNL1        0.0704
     16 N         142.5843  141.7809  170.9861 N.3     1  UNL1       -0.2960
     17 C         143.1006  141.7446  169.5783 C.3     1  UNL1        0.0887
     18 H         143.2698  141.3657  171.6171 H       1  UNL1        0.1233
     19 C         141.7543  141.6230  166.2791 C.3     1  UNL1        0.0936
     20 C         142.6971  142.5800  165.6119 C.3     1  UNL1        0.0199
     21 C         144.1106  143.0196  165.8551 C.3     1  UNL1        0.0017
     22 C         144.0305  143.9335  164.6683 C.3     1  UNL1        0.0001
     23 C         142.6172  143.4939  164.4252 C.3     1  UNL1        0.0017
@<TRIPOS>BOND
     1    11    12    1
     2    12    10    1
     3    10     4    1
     4     4     5   ar
     5     5     6   ar
     6     6     7   ar
     7     7     8   ar
     8     8     9   ar
     9     9     1    1
    10     1     2    2
    11     1     3   am
    12     3    19    1
    13    19    20    1
    14    20    21    1
    15    21    22    1
    16    22    23    1
    17    13     3    1
    18    13    14    1
    19    14    15    1
    20    15    16    1
    21    16    17    1
    22     9     4   ar
    23    23    20    1
    24    17    13    1
    25    16    18    1
