@<TRIPOS>MOLECULE
*****
 32 35 0 0 0
SMALL
GASTEIGER

@<TRIPOS>ATOM
      1 N          -6.1302  -18.1605   22.3283 N.ar    1  UNL1       -0.3028
      2 C          -7.1928  -19.2099   22.1887 C.ar    1  UNL1        0.0833
      3 C          -8.3625  -18.8003   23.0337 C.ar    1  UNL1        0.0579
      4 C          -8.0227  -17.4978   23.6956 C.ar    1  UNL1        0.0229
      5 C          -8.7914  -16.6208   24.6389 C.ar    1  UNL1        0.0017
      6 C          -8.1804  -15.3484   25.1463 C.ar    1  UNL1        0.0024
      7 C          -6.8007  -14.9530   24.7104 C.ar    1  UNL1        0.0311
      8 C          -6.0320  -15.8300   23.7670 C.ar    1  UNL1        0.1561
      9 F          -4.6523  -15.4346   23.3311 F       1  UNL1       -0.2026
     10 C          -6.6430  -17.1024   23.2596 C.ar    1  UNL1        0.0917
     11 C          -2.1091  -18.1827   20.3080 C.ar    1  UNL1        0.0141
     12 C          -3.3462  -18.4969   19.5200 C.ar    1  UNL1        0.0026
     13 C          -4.6865  -18.4895   20.1935 C.ar    1  UNL1        0.0176
     14 C          -4.7898  -18.1679   21.6549 C.ar    1  UNL1        0.0641
     15 C          -3.5527  -17.8537   22.4429 C.ar    1  UNL1        0.0176
     16 C          -2.2124  -17.8611   21.7695 C.ar    1  UNL1        0.0026
     17 O           0.4793  -18.3540   20.4502 O.co2   1  UNL1       -0.5446
     18 C          -0.7688  -18.1901   19.6346 C.2     1  UNL1        0.0729
     19 O          -0.6767  -18.0336   18.1456 O.co2   1  UNL1       -0.5446
     20 C          -9.6466  -19.5598   23.1895 C.2     1  UNL1        0.1978
     21 O          -9.6262  -20.9720   23.6947 O.2     1  UNL1       -0.2865
     22 C         -10.9512  -18.9071   22.8401 C.ar    1  UNL1        0.0535
     23 C         -11.9529  -18.6096   23.9162 C.ar    1  UNL1        0.0607
     24 CL        -11.6500  -18.9647   25.3417 Cl      1  UNL1       -0.0821
     25 C         -13.2575  -17.9569   23.5669 C.ar    1  UNL1        0.0115
     26 C         -13.5604  -17.6018   22.1413 C.ar    1  UNL1        0.0008
     27 C         -12.5587  -17.8993   21.0652 C.ar    1  UNL1        0.0040
     28 C         -11.2541  -18.5520   21.4145 C.ar    1  UNL1        0.0753
     29 C         -10.2524  -18.8496   20.3384 C.3     1  UNL1        0.4187
     30 F          -9.2507  -19.1471   19.2623 F       1  UNL1       -0.1659
     31 F         -10.7442  -20.2651   20.2720 F       1  UNL1       -0.1659
     32 F          -9.7606  -17.4340   20.4048 F       1  UNL1       -0.1659
@<TRIPOS>UNITY_ATOM_ATTR
17 1
charge -1
@<TRIPOS>BOND
     1    17    18   ar
     2    18    19   ar
     3    18    11    1
     4    11    12   ar
     5    12    13   ar
     6    13    14   ar
     7    14     1    1
     8     1     2   ar
     9     2     3   ar
    10     3    20    1
    11    20    21    2
    12    20    22    1
    13    22    23   ar
    14    23    24    1
    15    23    25   ar
    16    25    26   ar
    17    26    27   ar
    18    27    28   ar
    19    28    29    1
    20    29    30    1
    21    29    31    1
    22    29    32    1
    23     3     4   ar
    24     4     5   ar
    25     5     6   ar
    26     6     7   ar
    27     7     8   ar
    28     8     9    1
    29     8    10   ar
    30    14    15   ar
    31    15    16   ar
    32    16    11   ar
    33    10     1   ar
    34    28    22   ar
    35    10     4   ar
@<TRIPOS>MOLECULE
*****
 32 35 0 0 0
SMALL
GASTEIGER

@<TRIPOS>ATOM
      1 N          -6.2319  -17.9762   21.8038 N.ar    1  UNL1       -0.3028
      2 C          -7.3379  -18.7896   21.1995 C.ar    1  UNL1        0.0833
      3 C          -8.6128  -18.4356   21.9061 C.ar    1  UNL1        0.0579
      4 C          -8.2947  -17.4035   22.9471 C.ar    1  UNL1        0.0229
      5 C          -9.1549  -16.6855   23.9444 C.ar    1  UNL1        0.0017
      6 C          -8.5435  -15.6837   24.8784 C.ar    1  UNL1        0.0024
      7 C          -7.0720  -15.3998   24.8151 C.ar    1  UNL1        0.0311
      8 C          -6.2118  -16.1177   23.8178 C.ar    1  UNL1        0.1561
      9 F          -4.7403  -15.8338   23.7546 F       1  UNL1       -0.2026
     10 C          -6.8232  -17.1196   22.8838 C.ar    1  UNL1        0.0917
     11 C          -1.9001  -18.0866   20.5897 C.ar    1  UNL1        0.0141
     12 C          -2.9707  -18.3564   19.5743 C.ar    1  UNL1        0.0026
     13 C          -4.4146  -18.3196   19.9790 C.ar    1  UNL1        0.0176
     14 C          -4.7880  -18.0130   21.3990 C.ar    1  UNL1        0.0641
     15 C          -3.7173  -17.7432   22.4145 C.ar    1  UNL1        0.0176
     16 C          -2.2734  -17.7800   22.0097 C.ar    1  UNL1        0.0026
     17 O           0.3769  -16.8786   20.2647 O.co2   1  UNL1       -0.5446
     18 C          -0.4562  -18.1234   20.1849 C.2     1  UNL1        0.0729
     19 O           0.1545  -19.4049   19.7005 O.co2   1  UNL1       -0.5446
     20 C          -9.9679  -19.0124   21.6217 C.2     1  UNL1        0.1978
     21 O         -10.1454  -19.9935   20.5011 O.2     1  UNL1       -0.2865
     22 C         -11.1458  -18.6082   22.4581 C.ar    1  UNL1        0.0535
     23 C         -12.1146  -17.5849   21.9442 C.ar    1  UNL1        0.0607
     24 CL        -11.9057  -16.9658   20.5940 Cl      1  UNL1       -0.0821
     25 C         -13.2924  -17.1806   22.7805 C.ar    1  UNL1        0.0115
     26 C         -13.5013  -17.7997   24.1307 C.ar    1  UNL1        0.0008
     27 C         -12.5324  -18.8230   24.6446 C.ar    1  UNL1        0.0040
     28 C         -11.3546  -19.2273   23.8084 C.ar    1  UNL1        0.0753
     29 C         -10.3858  -20.2506   24.3223 C.3     1  UNL1        0.4187
     30 F          -9.4169  -21.2739   24.8361 F       1  UNL1       -0.1659
     31 F          -9.9618  -19.3047   25.4065 F       1  UNL1       -0.1659
     32 F         -10.8097  -21.1965   23.2380 F       1  UNL1       -0.1659
@<TRIPOS>UNITY_ATOM_ATTR
17 1
charge -1
@<TRIPOS>BOND
     1    17    18   ar
     2    18    19   ar
     3    18    11    1
     4    11    12   ar
     5    12    13   ar
     6    13    14   ar
     7    14     1    1
     8     1     2   ar
     9     2     3   ar
    10     3    20    1
    11    20    21    2
    12    20    22    1
    13    22    23   ar
    14    23    24    1
    15    23    25   ar
    16    25    26   ar
    17    26    27   ar
    18    27    28   ar
    19    28    29    1
    20    29    30    1
    21    29    31    1
    22    29    32    1
    23     3     4   ar
    24     4     5   ar
    25     5     6   ar
    26     6     7   ar
    27     7     8   ar
    28     8     9    1
    29     8    10   ar
    30    14    15   ar
    31    15    16   ar
    32    16    11   ar
    33    10     1   ar
    34    28    22   ar
    35    10     4   ar
@<TRIPOS>MOLECULE
*****
 32 35 0 0 0
SMALL
GASTEIGER

@<TRIPOS>ATOM
      1 N          -7.6492  -17.7494   23.1629 N.ar    1  UNL1       -0.3028
      2 C          -6.6664  -18.6475   22.4719 C.ar    1  UNL1        0.0833
      3 C          -5.2857  -18.2158   22.8685 C.ar    1  UNL1        0.0579
      4 C          -5.4151  -17.0510   23.8046 C.ar    1  UNL1        0.0229
      5 C          -4.3916  -16.2156   24.5148 C.ar    1  UNL1        0.0017
      6 C          -4.8288  -15.0919   25.4071 C.ar    1  UNL1        0.0024
      7 C          -6.2895  -14.8036   25.5891 C.ar    1  UNL1        0.0311
      8 C          -7.3131  -15.6390   24.8788 C.ar    1  UNL1        0.1561
      9 F          -8.7738  -15.3507   25.0608 F       1  UNL1       -0.2026
     10 C          -6.8758  -16.7627   23.9866 C.ar    1  UNL1        0.0917
     11 C         -12.1308  -17.9753   22.8245 C.ar    1  UNL1        0.0141
     12 C         -11.4396  -18.5474   24.0265 C.ar    1  UNL1        0.0026
     13 C          -9.9457  -18.4721   24.1393 C.ar    1  UNL1        0.0176
     14 C          -9.1430  -17.8247   23.0501 C.ar    1  UNL1        0.0641
     15 C          -9.8342  -17.2525   21.8480 C.ar    1  UNL1        0.0176
     16 C         -11.3281  -17.3279   21.7352 C.ar    1  UNL1        0.0026
     17 O         -14.4643  -18.1825   23.9476 O.co2   1  UNL1       -0.5446
     18 C         -13.6246  -18.0506   22.7117 C.2     1  UNL1        0.0729
     19 O         -14.2788  -17.9941   21.3630 O.co2   1  UNL1       -0.5446
     20 C          -4.0010  -18.8395   22.4095 C.2     1  UNL1        0.1978
     21 O          -3.3399  -19.8959   23.2442 O.2     1  UNL1       -0.2865
     22 C          -3.3774  -18.4068   21.1156 C.ar    1  UNL1        0.0535
     23 C          -2.3946  -17.2738   21.0987 C.ar    1  UNL1        0.0607
     24 CL         -2.0353  -16.5735   22.3757 Cl      1  UNL1       -0.0821
     25 C          -1.7710  -16.8410   19.8049 C.ar    1  UNL1        0.0115
     26 C          -2.1304  -17.5413   18.5280 C.ar    1  UNL1        0.0008
     27 C          -3.1132  -18.6743   18.5449 C.ar    1  UNL1        0.0040
     28 C          -3.7368  -19.1071   19.8387 C.ar    1  UNL1        0.0753
     29 C          -4.7196  -20.2401   19.8556 C.3     1  UNL1        0.4187
     30 F          -5.7025  -21.3731   19.8725 F       1  UNL1       -0.1659
     31 F          -3.6031  -21.2046   20.1256 F       1  UNL1       -0.1659
     32 F          -5.8362  -19.2755   19.5856 F       1  UNL1       -0.1659
@<TRIPOS>UNITY_ATOM_ATTR
17 1
charge -1
@<TRIPOS>BOND
     1    17    18   ar
     2    18    19   ar
     3    18    11    1
     4    11    12   ar
     5    12    13   ar
     6    13    14   ar
     7    14     1    1
     8     1     2   ar
     9     2     3   ar
    10     3    20    1
    11    20    21    2
    12    20    22    1
    13    22    23   ar
    14    23    24    1
    15    23    25   ar
    16    25    26   ar
    17    26    27   ar
    18    27    28   ar
    19    28    29    1
    20    29    30    1
    21    29    31    1
    22    29    32    1
    23     3     4   ar
    24     4     5   ar
    25     5     6   ar
    26     6     7   ar
    27     7     8   ar
    28     8     9    1
    29     8    10   ar
    30    14    15   ar
    31    15    16   ar
    32    16    11   ar
    33    10     1   ar
    34    28    22   ar
    35    10     4   ar
@<TRIPOS>MOLECULE
*****
 32 35 0 0 0
SMALL
GASTEIGER

@<TRIPOS>ATOM
      1 N           6.2259   -3.5359   24.7597 N.ar    1  UNL1       -0.3028
      2 C           6.8260   -4.1216   23.5161 C.ar    1  UNL1        0.0833
      3 C           6.1665   -3.4749   22.3342 C.ar    1  UNL1        0.0579
      4 C           5.1588   -2.4894   22.8475 C.ar    1  UNL1        0.0229
      5 C           4.2126   -1.5626   22.1435 C.ar    1  UNL1        0.0017
      6 C           3.3030   -0.6735   22.9386 C.ar    1  UNL1        0.0024
      7 C           3.3397   -0.7112   24.4377 C.ar    1  UNL1        0.0311
      8 C           4.2860   -1.6380   25.1417 C.ar    1  UNL1        0.1561
      9 F           4.3227   -1.6758   26.6407 F       1  UNL1       -0.2026
     10 C           5.1955   -2.5271   24.3466 C.ar    1  UNL1        0.0917
     11 C           7.3239   -4.6153   28.9882 C.ar    1  UNL1        0.0141
     12 C           6.7884   -5.6657   28.0609 C.ar    1  UNL1        0.0026
     13 C           6.4224   -5.3059   26.6514 C.ar    1  UNL1        0.0176
     14 C           6.5919   -3.8957   26.1692 C.ar    1  UNL1        0.0641
     15 C           7.1274   -2.8453   27.0965 C.ar    1  UNL1        0.0176
     16 C           7.4934   -3.2051   28.5060 C.ar    1  UNL1        0.0026
     17 O           6.8897   -6.0033   31.1410 O.co2   1  UNL1       -0.5446
     18 C           7.6899   -4.9752   30.3976 C.2     1  UNL1        0.0729
     19 O           8.8560   -4.3069   31.0636 O.co2   1  UNL1       -0.5446
     20 C           6.4627   -3.7629   20.8923 C.2     1  UNL1        0.1978
     21 O           7.0775   -5.0737   20.5002 O.2     1  UNL1       -0.2865
     22 C           6.1440   -2.7401   19.8422 C.ar    1  UNL1        0.0535
     23 C           7.0437   -1.5551   19.6521 C.ar    1  UNL1        0.0607
     24 CL          8.2621   -1.3929   20.5120 Cl      1  UNL1       -0.0821
     25 C           6.7252   -0.5323   18.6022 C.ar    1  UNL1        0.0115
     26 C           5.5068   -0.6946   17.7424 C.ar    1  UNL1        0.0008
     27 C           4.6071   -1.8796   17.9325 C.ar    1  UNL1        0.0040
     28 C           4.9257   -2.9024   18.9824 C.ar    1  UNL1        0.0753
     29 C           4.0259   -4.0875   19.1726 C.3     1  UNL1        0.4187
     30 F           3.1262   -5.2725   19.3627 F       1  UNL1       -0.1659
     31 F           3.1261   -3.2642   20.0458 F       1  UNL1       -0.1659
     32 F           4.9258   -4.9107   18.2994 F       1  UNL1       -0.1659
@<TRIPOS>UNITY_ATOM_ATTR
17 1
charge -1
@<TRIPOS>BOND
     1    17    18   ar
     2    18    19   ar
     3    18    11    1
     4    11    12   ar
     5    12    13   ar
     6    13    14   ar
     7    14     1    1
     8     1     2   ar
     9     2     3   ar
    10     3    20    1
    11    20    21    2
    12    20    22    1
    13    22    23   ar
    14    23    24    1
    15    23    25   ar
    16    25    26   ar
    17    26    27   ar
    18    27    28   ar
    19    28    29    1
    20    29    30    1
    21    29    31    1
    22    29    32    1
    23     3     4   ar
    24     4     5   ar
    25     5     6   ar
    26     6     7   ar
    27     7     8   ar
    28     8     9    1
    29     8    10   ar
    30    14    15   ar
    31    15    16   ar
    32    16    11   ar
    33    10     1   ar
    34    28    22   ar
    35    10     4   ar
@<TRIPOS>MOLECULE
*****
 32 35 0 0 0
SMALL
GASTEIGER

@<TRIPOS>ATOM
      1 N           0.3485    1.9291   20.7773 N.ar    1  UNL1       -0.3028
      2 C          -0.5409    2.8645   20.0131 C.ar    1  UNL1        0.0833
      3 C          -1.3805    3.6174   21.0022 C.ar    1  UNL1        0.0579
      4 C          -1.0100    3.1474   22.3776 C.ar    1  UNL1        0.0229
      5 C          -1.5075    3.5347   23.7386 C.ar    1  UNL1        0.0017
      6 C          -0.9365    2.8786   24.9606 C.ar    1  UNL1        0.0024
      7 C           0.1321    1.8352   24.8216 C.ar    1  UNL1        0.0311
      8 C           0.6297    1.4478   23.4606 C.ar    1  UNL1        0.1561
      9 F           1.6983    0.4044   23.3217 F       1  UNL1       -0.2026
     10 C           0.0586    2.1040   22.2386 C.ar    1  UNL1        0.0917
     11 C           3.3581   -0.9043   18.9984 C.ar    1  UNL1        0.0141
     12 C           3.5096    0.5744   18.7968 C.ar    1  UNL1        0.0026
     13 C           2.5064    1.5188   19.3898 C.ar    1  UNL1        0.0176
     14 C           1.3517    0.9847   20.1843 C.ar    1  UNL1        0.0641
     15 C           1.2002   -0.4940   20.3859 C.ar    1  UNL1        0.0176
     16 C           2.2034   -1.4385   19.7929 C.ar    1  UNL1        0.0026
     17 O           4.5755   -3.1993   19.0218 O.co2   1  UNL1       -0.5446
     18 C           4.3613   -1.8487   18.4054 C.2     1  UNL1        0.0729
     19 O           5.1503   -1.4425   17.1960 O.co2   1  UNL1       -0.5446
     20 C          -2.4099    4.6578   20.6735 C.2     1  UNL1        0.1978
     21 O          -2.1518    6.0983   21.0020 O.2     1  UNL1       -0.2865
     22 C          -3.6975    4.2574   20.0163 C.ar    1  UNL1        0.0535
     23 C          -3.7687    4.1262   18.5237 C.ar    1  UNL1        0.0607
     24 CL         -2.5522    4.3953   17.6884 Cl      1  UNL1       -0.0821
     25 C          -5.0562    3.7259   17.8665 C.ar    1  UNL1        0.0115
     26 C          -6.2726    3.4568   18.7019 C.ar    1  UNL1        0.0008
     27 C          -6.2015    3.5880   20.1944 C.ar    1  UNL1        0.0040
     28 C          -4.9140    3.9883   20.8517 C.ar    1  UNL1        0.0753
     29 C          -4.8429    4.1196   22.3442 C.3     1  UNL1        0.4187
     30 F          -4.7717    4.2508   23.8367 F       1  UNL1       -0.1659
     31 F          -5.0713    5.5973   22.2252 F       1  UNL1       -0.1659
     32 F          -4.6145    2.6418   22.4632 F       1  UNL1       -0.1659
@<TRIPOS>UNITY_ATOM_ATTR
17 1
charge -1
@<TRIPOS>BOND
     1    17    18   ar
     2    18    19   ar
     3    18    11    1
     4    11    12   ar
     5    12    13   ar
     6    13    14   ar
     7    14     1    1
     8     1     2   ar
     9     2     3   ar
    10     3    20    1
    11    20    21    2
    12    20    22    1
    13    22    23   ar
    14    23    24    1
    15    23    25   ar
    16    25    26   ar
    17    26    27   ar
    18    27    28   ar
    19    28    29    1
    20    29    30    1
    21    29    31    1
    22    29    32    1
    23     3     4   ar
    24     4     5   ar
    25     5     6   ar
    26     6     7   ar
    27     7     8   ar
    28     8     9    1
    29     8    10   ar
    30    14    15   ar
    31    15    16   ar
    32    16    11   ar
    33    10     1   ar
    34    28    22   ar
    35    10     4   ar
@<TRIPOS>MOLECULE
*****
 32 35 0 0 0
SMALL
GASTEIGER

@<TRIPOS>ATOM
      1 N          -0.0519    2.2185   22.4787 N.ar    1  UNL1       -0.3028
      2 C          -0.9252    3.3115   21.9376 C.ar    1  UNL1        0.0833
      3 C          -1.6697    3.9221   23.0877 C.ar    1  UNL1        0.0579
      4 C          -1.2566    3.2066   24.3396 C.ar    1  UNL1        0.0229
      5 C          -1.6617    3.3777   25.7737 C.ar    1  UNL1        0.0017
      6 C          -1.0669    2.4960   26.8313 C.ar    1  UNL1        0.0024
      7 C          -0.0671    1.4430   26.4550 C.ar    1  UNL1        0.0311
      8 C           0.3380    1.2719   25.0209 C.ar    1  UNL1        0.1561
      9 F           1.3379    0.2190   24.6445 F       1  UNL1       -0.2026
     10 C          -0.2568    2.1536   23.9632 C.ar    1  UNL1        0.0917
     11 C           2.6994   -0.4054   20.0712 C.ar    1  UNL1        0.0141
     12 C           1.2139   -0.5918   19.9787 C.ar    1  UNL1        0.0026
     13 C           0.2968    0.2828   20.7812 C.ar    1  UNL1        0.0176
     14 C           0.8651    1.3439   21.6762 C.ar    1  UNL1        0.0641
     15 C           2.3507    1.5304   21.7687 C.ar    1  UNL1        0.0176
     16 C           3.2678    0.6557   20.9662 C.ar    1  UNL1        0.0026
     17 O           3.4117   -2.7658   19.2524 O.co2   1  UNL1       -0.5446
     18 C           3.6165   -1.2800   19.2687 C.2     1  UNL1        0.0729
     19 O           4.7383   -0.6687   18.4826 O.co2   1  UNL1       -0.5446
     20 C          -2.6545    5.0503   23.0011 C.2     1  UNL1        0.1978
     21 O          -2.3533    6.3613   23.6646 O.2     1  UNL1       -0.2865
     22 C          -3.9405    4.8674   22.2509 C.ar    1  UNL1        0.0535
     23 C          -4.0161    5.2199   20.7949 C.ar    1  UNL1        0.0607
     24 CL         -2.8057    5.7553   20.0891 Cl      1  UNL1       -0.0821
     25 C          -5.3021    5.0370   20.0447 C.ar    1  UNL1        0.0115
     26 C          -6.5125    4.5016   20.7505 C.ar    1  UNL1        0.0008
     27 C          -6.4369    4.1490   22.2066 C.ar    1  UNL1        0.0040
     28 C          -5.1509    4.3319   22.9568 C.ar    1  UNL1        0.0753
     29 C          -5.0753    3.9794   24.4128 C.3     1  UNL1        0.4187
     30 F          -4.9997    3.6269   25.8688 F       1  UNL1       -0.1659
     31 F          -4.7204    2.5672   24.0525 F       1  UNL1       -0.1659
     32 F          -5.4302    5.3916   24.7731 F       1  UNL1       -0.1659
@<TRIPOS>UNITY_ATOM_ATTR
17 1
charge -1
@<TRIPOS>BOND
     1    17    18   ar
     2    18    19   ar
     3    18    11    1
     4    11    12   ar
     5    12    13   ar
     6    13    14   ar
     7    14     1    1
     8     1     2   ar
     9     2     3   ar
    10     3    20    1
    11    20    21    2
    12    20    22    1
    13    22    23   ar
    14    23    24    1
    15    23    25   ar
    16    25    26   ar
    17    26    27   ar
    18    27    28   ar
    19    28    29    1
    20    29    30    1
    21    29    31    1
    22    29    32    1
    23     3     4   ar
    24     4     5   ar
    25     5     6   ar
    26     6     7   ar
    27     7     8   ar
    28     8     9    1
    29     8    10   ar
    30    14    15   ar
    31    15    16   ar
    32    16    11   ar
    33    10     1   ar
    34    28    22   ar
    35    10     4   ar
@<TRIPOS>MOLECULE
*****
 32 35 0 0 0
SMALL
GASTEIGER

@<TRIPOS>ATOM
      1 N           2.0648    1.4039   22.3496 N.ar    1  UNL1       -0.3028
      2 C           2.7080    1.5012   23.7012 C.ar    1  UNL1        0.0833
      3 C           1.7998    2.2978   24.5903 C.ar    1  UNL1        0.0579
      4 C           0.5954    2.6929   23.7882 C.ar    1  UNL1        0.0229
      5 C          -0.6293    3.4843   24.1400 C.ar    1  UNL1        0.0017
      6 C          -1.6902    3.7232   23.1069 C.ar    1  UNL1        0.0024
      7 C          -1.5264    3.1707   21.7220 C.ar    1  UNL1        0.0311
      8 C          -0.3017    2.3793   21.3702 C.ar    1  UNL1        0.1561
      9 F          -0.1379    1.8268   19.9853 F       1  UNL1       -0.2026
     10 C           0.7592    2.1404   22.4033 C.ar    1  UNL1        0.0917
     11 C           3.7555   -0.7239   18.7628 C.ar    1  UNL1        0.0141
     12 C           2.8667   -1.4596   19.7213 C.ar    1  UNL1        0.0026
     13 C           2.3032   -0.7503   20.9169 C.ar    1  UNL1        0.0176
     14 C           2.6284    0.6946   21.1540 C.ar    1  UNL1        0.0641
     15 C           3.5172    1.4304   20.1954 C.ar    1  UNL1        0.0176
     16 C           4.0807    0.7211   18.9999 C.ar    1  UNL1        0.0026
     17 O           3.8139   -1.1049   16.1936 O.co2   1  UNL1       -0.5446
     18 C           4.3190   -1.4332   17.5673 C.2     1  UNL1        0.0729
     19 O           5.3876   -2.4707   17.7454 O.co2   1  UNL1       -0.5446
     20 C           2.0518    2.6395   26.0290 C.2     1  UNL1        0.1978
     21 O           2.2627    4.0679   26.4349 O.2     1  UNL1       -0.2865
     22 C           2.0929    1.5524   27.0619 C.ar    1  UNL1        0.0535
     23 C           3.3968    0.8981   27.4107 C.ar    1  UNL1        0.0607
     24 CL          4.6596    1.3309   26.7265 Cl      1  UNL1       -0.0821
     25 C           3.4380   -0.1888   28.4435 C.ar    1  UNL1        0.0115
     26 C           2.1751   -0.6215   29.1276 C.ar    1  UNL1        0.0008
     27 C           0.8712    0.0328   28.7789 C.ar    1  UNL1        0.0040
     28 C           0.8300    1.1198   27.7460 C.ar    1  UNL1        0.0753
     29 C          -0.4739    1.7741   27.3973 C.3     1  UNL1        0.4187
     30 F          -1.7779    2.4284   27.0485 F       1  UNL1       -0.1659
     31 F          -0.2717    2.7668   28.5034 F       1  UNL1       -0.1659
     32 F          -0.6762    0.7813   26.2911 F       1  UNL1       -0.1659
@<TRIPOS>UNITY_ATOM_ATTR
17 1
charge -1
@<TRIPOS>BOND
     1    17    18   ar
     2    18    19   ar
     3    18    11    1
     4    11    12   ar
     5    12    13   ar
     6    13    14   ar
     7    14     1    1
     8     1     2   ar
     9     2     3   ar
    10     3    20    1
    11    20    21    2
    12    20    22    1
    13    22    23   ar
    14    23    24    1
    15    23    25   ar
    16    25    26   ar
    17    26    27   ar
    18    27    28   ar
    19    28    29    1
    20    29    30    1
    21    29    31    1
    22    29    32    1
    23     3     4   ar
    24     4     5   ar
    25     5     6   ar
    26     6     7   ar
    27     7     8   ar
    28     8     9    1
    29     8    10   ar
    30    14    15   ar
    31    15    16   ar
    32    16    11   ar
    33    10     1   ar
    34    28    22   ar
    35    10     4   ar
@<TRIPOS>MOLECULE
*****
 32 35 0 0 0
SMALL
GASTEIGER

@<TRIPOS>ATOM
      1 N           2.2924    0.7166   30.9172 N.ar    1  UNL1       -0.3028
      2 C           3.0943   -0.4750   31.3497 C.ar    1  UNL1        0.0833
      3 C           3.4995   -0.2670   32.7789 C.ar    1  UNL1        0.0579
      4 C           2.9481    1.0532   33.2297 C.ar    1  UNL1        0.0229
      5 C           3.0289    1.7803   34.5391 C.ar    1  UNL1        0.0017
      6 C           2.3637    3.1152   34.6980 C.ar    1  UNL1        0.0024
      7 C           1.6176    3.7231   33.5474 C.ar    1  UNL1        0.0311
      8 C           1.5368    2.9960   32.2379 C.ar    1  UNL1        0.1561
      9 F           0.7908    3.6039   31.0873 F       1  UNL1       -0.2026
     10 C           2.2020    1.6611   32.0791 C.ar    1  UNL1        0.0917
     11 C           0.4767    1.3474   26.8484 C.ar    1  UNL1        0.0141
     12 C          -0.3934    0.9541   28.0052 C.ar    1  UNL1        0.0026
     13 C           0.2119    0.7438   29.3614 C.ar    1  UNL1        0.0176
     14 C           1.6871    0.9269   29.5610 C.ar    1  UNL1        0.0641
     15 C           2.5573    1.3202   28.4041 C.ar    1  UNL1        0.0176
     16 C           1.9520    1.5305   27.0478 C.ar    1  UNL1        0.0026
     17 O          -1.3641    2.3952   25.3439 O.co2   1  UNL1       -0.5446
     18 C          -0.1286    1.5576   25.4921 C.2     1  UNL1        0.0729
     19 O           0.5016    0.9303   24.2841 O.co2   1  UNL1       -0.5446
     20 C           4.3133   -1.2130   33.6112 C.2     1  UNL1        0.1978
     21 O           3.7715   -2.5698   33.9506 O.2     1  UNL1       -0.2865
     22 C           5.6692   -0.8021   34.1043 C.ar    1  UNL1        0.0535
     23 C           5.8450   -0.3457   35.5223 C.ar    1  UNL1        0.0607
     24 CL          4.6649   -0.3001   36.4473 Cl      1  UNL1       -0.0821
     25 C           7.2007    0.0652   36.0154 C.ar    1  UNL1        0.0115
     26 C           8.3806    0.0197   35.0904 C.ar    1  UNL1        0.0008
     27 C           8.2048   -0.4367   33.6724 C.ar    1  UNL1        0.0040
     28 C           6.8491   -0.8476   33.1793 C.ar    1  UNL1        0.0753
     29 C           6.6733   -1.3041   31.7613 C.3     1  UNL1        0.4187
     30 F           6.4975   -1.7605   30.3433 F       1  UNL1       -0.1659
     31 F           6.4770    0.1184   31.3277 F       1  UNL1       -0.1659
     32 F           6.8696   -2.7265   32.1948 F       1  UNL1       -0.1659
@<TRIPOS>UNITY_ATOM_ATTR
17 1
charge -1
@<TRIPOS>BOND
     1    17    18   ar
     2    18    19   ar
     3    18    11    1
     4    11    12   ar
     5    12    13   ar
     6    13    14   ar
     7    14     1    1
     8     1     2   ar
     9     2     3   ar
    10     3    20    1
    11    20    21    2
    12    20    22    1
    13    22    23   ar
    14    23    24    1
    15    23    25   ar
    16    25    26   ar
    17    26    27   ar
    18    27    28   ar
    19    28    29    1
    20    29    30    1
    21    29    31    1
    22    29    32    1
    23     3     4   ar
    24     4     5   ar
    25     5     6   ar
    26     6     7   ar
    27     7     8   ar
    28     8     9    1
    29     8    10   ar
    30    14    15   ar
    31    15    16   ar
    32    16    11   ar
    33    10     1   ar
    34    28    22   ar
    35    10     4   ar
@<TRIPOS>MOLECULE
*****
 32 35 0 0 0
SMALL
GASTEIGER

@<TRIPOS>ATOM
      1 N           6.5996   -3.8587   24.9885 N.ar    1  UNL1       -0.3028
      2 C           5.5399   -3.0056   24.3567 C.ar    1  UNL1        0.0833
      3 C           5.7397   -3.0430   22.8705 C.ar    1  UNL1        0.0579
      4 C           6.9230   -3.9193   22.5838 C.ar    1  UNL1        0.0229
      5 C           7.5851   -4.3233   21.3000 C.ar    1  UNL1        0.0017
      6 C           8.7787   -5.2314   21.3251 C.ar    1  UNL1        0.0024
      7 C           9.3101   -5.7355   22.6341 C.ar    1  UNL1        0.0311
      8 C           8.6479   -5.3315   23.9180 C.ar    1  UNL1        0.1561
      9 F           9.1793   -5.8357   25.2269 F       1  UNL1       -0.2026
     10 C           7.4544   -4.4234   23.8928 C.ar    1  UNL1        0.0917
     11 C           7.1226   -4.5948   29.3970 C.ar    1  UNL1        0.0141
     12 C           6.6783   -5.7102   28.4979 C.ar    1  UNL1        0.0026
     13 C           6.5040   -5.4648   27.0284 C.ar    1  UNL1        0.0176
     14 C           6.7739   -4.1041   26.4579 C.ar    1  UNL1        0.0641
     15 C           7.2182   -2.9886   27.3571 C.ar    1  UNL1        0.0176
     16 C           7.3925   -3.2340   28.8266 C.ar    1  UNL1        0.0026
     17 O           7.9255   -3.7894   31.7328 O.co2   1  UNL1       -0.5446
     18 C           7.2969   -4.8402   30.8665 C.2     1  UNL1        0.0729
     19 O           6.8426   -6.1363   31.4695 O.co2   1  UNL1       -0.5446
     20 C           4.9033   -2.3295   21.8501 C.2     1  UNL1        0.1978
     21 O           3.4918   -1.9409   22.1764 O.2     1  UNL1       -0.2865
     22 C           5.4784   -2.0045   20.5033 C.ar    1  UNL1        0.0535
     23 C           6.5027   -0.9171   20.3678 C.ar    1  UNL1        0.0607
     24 CL          6.9519   -0.1548   21.5791 Cl      1  UNL1       -0.0821
     25 C           7.0779   -0.5921   19.0212 C.ar    1  UNL1        0.0115
     26 C           6.6286   -1.3545   17.8100 C.ar    1  UNL1        0.0008
     27 C           5.6043   -2.4418   17.9455 C.ar    1  UNL1        0.0040
     28 C           5.0292   -2.7669   19.2922 C.ar    1  UNL1        0.0753
     29 C           4.0048   -3.8542   19.4277 C.3     1  UNL1        0.4187
     30 F           2.9805   -4.9416   19.5632 F       1  UNL1       -0.1659
     31 F           5.0993   -4.8785   19.4815 F       1  UNL1       -0.1659
     32 F           2.9104   -2.8299   19.3738 F       1  UNL1       -0.1659
@<TRIPOS>UNITY_ATOM_ATTR
17 1
charge -1
@<TRIPOS>BOND
     1    17    18   ar
     2    18    19   ar
     3    18    11    1
     4    11    12   ar
     5    12    13   ar
     6    13    14   ar
     7    14     1    1
     8     1     2   ar
     9     2     3   ar
    10     3    20    1
    11    20    21    2
    12    20    22    1
    13    22    23   ar
    14    23    24    1
    15    23    25   ar
    16    25    26   ar
    17    26    27   ar
    18    27    28   ar
    19    28    29    1
    20    29    30    1
    21    29    31    1
    22    29    32    1
    23     3     4   ar
    24     4     5   ar
    25     5     6   ar
    26     6     7   ar
    27     7     8   ar
    28     8     9    1
    29     8    10   ar
    30    14    15   ar
    31    15    16   ar
    32    16    11   ar
    33    10     1   ar
    34    28    22   ar
    35    10     4   ar
