@<TRIPOS>MOLECULE
*****
 25 28 0 0 0
SMALL
GASTEIGER

@<TRIPOS>ATOM
      1 C          -8.3798  -19.2654   20.9416 C.3     1  UNL1        0.1473
      2 O          -9.0242  -18.9937   19.6146 O.3     1  UNL1       -0.3787
      3 H          -9.9871  -18.9546   19.7247 H       1  UNL1        0.2108
      4 C          -9.2281  -19.4290   22.1678 C.ar    1  UNL1        0.0087
      5 C          -8.7749  -20.3293   23.2787 C.ar    1  UNL1        0.0188
      6 C          -9.6232  -20.4929   24.5049 C.ar    1  UNL1        0.0986
      7 N         -10.9247  -19.7561   24.6202 N.ar    1  UNL1       -0.2439
      8 C         -11.3779  -18.8558   23.5094 C.ar    1  UNL1        0.0813
      9 C         -12.6794  -18.1191   23.6247 C.ar    1  UNL1        0.0222
     10 C         -13.1326  -17.2187   22.5139 C.ar    1  UNL1        0.0384
     11 C         -12.2843  -17.0551   21.2876 C.ar    1  UNL1        0.1388
     12 C         -10.9828  -17.7919   21.1723 C.ar    1  UNL1        0.0382
     13 C         -10.5296  -18.6922   22.2832 C.ar    1  UNL1        0.0190
     14 O         -12.7375  -16.1548   20.1768 O.3     1  UNL1       -0.4714
     15 C         -11.7417  -15.6221   19.1896 C.3     1  UNL1        0.2525
     16 C          -3.9017  -19.5898   21.2439 C.3     1  UNL1        0.0381
     17 C          -4.6284  -18.5150   21.9968 C.3     1  UNL1        0.0765
     18 N          -6.1210  -18.4068   21.8960 N.3     1  UNL1       -0.2712
     19 C          -6.8871  -19.3735   21.0424 C.3     1  UNL1        0.0722
     20 C          -6.1605  -20.4483   20.2895 C.3     1  UNL1        0.0177
     21 C          -4.6678  -20.5565   20.3903 C.3     1  UNL1        0.0082
     22 C          -5.8030  -19.9972   20.6879 C.3     1  UNL1        0.0192
     23 C          -6.1905  -19.4240   21.0894 C.3     1  UNL1        0.0888
     24 C          -1.5349  -18.7492   20.5793 C.2     1  UNL1       -0.0049
     25 C          -2.4090  -19.6979   21.3447 C.2     1  UNL1       -0.0251
@<TRIPOS>BOND
     1    24    25    2
     2    16    25    1
     3    16    17    1
     4    17    18    1
     5    18    19    1
     6    19    20    1
     7    21    20    1
     8    21    22    1
     9    23    22    1
    10    23     1    1
    11     1     2    1
    12     1     4    1
    13     4     5   ar
    14     5     6   ar
    15     6     7   ar
    16     7     8   ar
    17     8     9   ar
    18     9    10   ar
    19    10    11   ar
    20    11    14    1
    21    14    15    1
    22    11    12   ar
    23    12    13   ar
    24    21    16    1
    25    13     4   ar
    26    23    18    1
    27    13     8   ar
    28     2     3    1
@<TRIPOS>MOLECULE
*****
 25 28 0 0 0
SMALL
GASTEIGER

@<TRIPOS>ATOM
      1 C          -9.1606  -16.7663   21.9523 C.3     1  UNL1        0.1473
      2 O          -8.9526  -15.3419   21.5308 O.3     1  UNL1       -0.3787
      3 H          -8.0698  -15.2458   21.1406 H       1  UNL1        0.2108
      4 C          -8.0742  -17.7782   21.7378 C.ar    1  UNL1        0.0087
      5 C          -8.3066  -18.9462   20.8257 C.ar    1  UNL1        0.0188
      6 C          -7.2203  -19.9580   20.6113 C.ar    1  UNL1        0.0986
      7 N          -5.9016  -19.8019   21.3088 N.ar    1  UNL1       -0.2439
      8 C          -5.6692  -18.6339   22.2208 C.ar    1  UNL1        0.0813
      9 C          -4.3504  -18.4778   22.9184 C.ar    1  UNL1        0.0222
     10 C          -4.1181  -17.3098   23.8304 C.ar    1  UNL1        0.0384
     11 C          -5.2044  -16.2979   24.0449 C.ar    1  UNL1        0.1388
     12 C          -6.5232  -16.4540   23.3474 C.ar    1  UNL1        0.0382
     13 C          -6.7555  -17.6221   22.4353 C.ar    1  UNL1        0.0190
     14 O          -4.9720  -15.1299   24.9569 O.3     1  UNL1       -0.4714
     15 C          -5.6750  -15.0601   26.2802 C.3     1  UNL1        0.2525
     16 C         -13.0436  -18.0042   23.8601 C.3     1  UNL1        0.0381
     17 C         -13.0438  -17.0147   22.7328 C.3     1  UNL1        0.0765
     18 N         -11.7495  -16.6020   22.0968 N.3     1  UNL1       -0.2712
     19 C         -10.4549  -17.1789   22.5882 C.3     1  UNL1        0.0722
     20 C         -10.4548  -18.1684   23.7155 C.3     1  UNL1        0.0177
     21 C         -11.7491  -18.5810   24.3515 C.3     1  UNL1        0.0082
     22 C         -11.0589  -17.8992   23.4862 C.3     1  UNL1        0.0192
     23 C         -11.0590  -17.3715   22.8850 C.3     1  UNL1        0.0888
     24 C         -14.4592  -18.4596   25.9905 C.2     1  UNL1       -0.0049
     25 C         -14.3379  -18.4168   24.4961 C.2     1  UNL1       -0.0251
@<TRIPOS>BOND
     1    24    25    2
     2    16    25    1
     3    16    17    1
     4    17    18    1
     5    18    19    1
     6    19    20    1
     7    21    20    1
     8    21    22    1
     9    23    22    1
    10    23     1    1
    11     1     2    1
    12     1     4    1
    13     4     5   ar
    14     5     6   ar
    15     6     7   ar
    16     7     8   ar
    17     8     9   ar
    18     9    10   ar
    19    10    11   ar
    20    11    14    1
    21    14    15    1
    22    11    12   ar
    23    12    13   ar
    24    21    16    1
    25    13     4   ar
    26    23    18    1
    27    13     8   ar
    28     2     3    1
@<TRIPOS>MOLECULE
*****
 25 28 0 0 0
SMALL
GASTEIGER

@<TRIPOS>ATOM
      1 C          -6.5050  -19.8704   21.6889 C.3     1  UNL1        0.1473
      2 O          -6.5737  -21.0257   22.6430 O.3     1  UNL1       -0.3787
      3 H          -7.4920  -21.3292   22.7177 H       1  UNL1        0.2108
      4 C          -7.7539  -19.3700   21.0257 C.ar    1  UNL1        0.0087
      5 C          -8.1065  -19.8337   19.6435 C.ar    1  UNL1        0.0188
      6 C          -9.3555  -19.3334   18.9804 C.ar    1  UNL1        0.0986
      7 N         -10.2518  -18.3693   19.6995 N.ar    1  UNL1       -0.2439
      8 C          -9.8992  -17.9056   21.0817 C.ar    1  UNL1        0.0813
      9 C         -10.7956  -16.9415   21.8008 C.ar    1  UNL1        0.0222
     10 C         -10.4430  -16.4778   23.1830 C.ar    1  UNL1        0.0384
     11 C          -9.1940  -16.9781   23.8462 C.ar    1  UNL1        0.1388
     12 C          -8.2976  -17.9422   23.1271 C.ar    1  UNL1        0.0382
     13 C          -8.6503  -18.4059   21.7448 C.ar    1  UNL1        0.0190
     14 O          -8.8414  -16.5144   25.2285 O.3     1  UNL1       -0.4714
     15 C          -7.6872  -15.5787   25.4340 C.3     1  UNL1        0.2525
     16 C          -2.5520  -17.9052   20.8159 C.3     1  UNL1        0.0381
     17 C          -3.2600  -17.6243   22.1082 C.3     1  UNL1        0.0765
     18 N          -4.5777  -18.2794   22.3992 N.3     1  UNL1       -0.2712
     19 C          -5.1873  -19.2153   21.3979 C.3     1  UNL1        0.0722
     20 C          -4.4792  -19.4962   20.1058 C.3     1  UNL1        0.0177
     21 C          -3.1616  -18.8411   19.8148 C.3     1  UNL1        0.0082
     22 C          -4.1948  -19.0594   20.5730 C.3     1  UNL1        0.0192
     23 C          -4.5724  -18.9096   21.2621 C.3     1  UNL1        0.0888
     24 C          -0.1777  -17.9958   19.7651 C.2     1  UNL1       -0.0049
     25 C          -1.2343  -17.2502   20.5250 C.2     1  UNL1       -0.0251
@<TRIPOS>BOND
     1    24    25    2
     2    16    25    1
     3    16    17    1
     4    17    18    1
     5    18    19    1
     6    19    20    1
     7    21    20    1
     8    21    22    1
     9    23    22    1
    10    23     1    1
    11     1     2    1
    12     1     4    1
    13     4     5   ar
    14     5     6   ar
    15     6     7   ar
    16     7     8   ar
    17     8     9   ar
    18     9    10   ar
    19    10    11   ar
    20    11    14    1
    21    14    15    1
    22    11    12   ar
    23    12    13   ar
    24    21    16    1
    25    13     4   ar
    26    23    18    1
    27    13     8   ar
    28     2     3    1
@<TRIPOS>MOLECULE
*****
 25 28 0 0 0
SMALL
GASTEIGER

@<TRIPOS>ATOM
      1 C         -10.6560  -18.5656   24.4311 C.3     1  UNL1        0.1473
      2 O         -11.2766  -19.6836   25.2152 O.3     1  UNL1       -0.3787
      3 H         -11.8897  -20.1756   24.6468 H       1  UNL1        0.2108
      4 C         -11.0264  -18.3632   22.9917 C.ar    1  UNL1        0.0087
      5 C         -12.3421  -17.7363   22.6368 C.ar    1  UNL1        0.0188
      6 C         -12.7124  -17.5339   21.1974 C.ar    1  UNL1        0.0986
      7 N         -11.7671  -17.9584   20.1129 N.ar    1  UNL1       -0.2439
      8 C         -10.4514  -18.5853   20.4678 C.ar    1  UNL1        0.0813
      9 C          -9.5060  -19.0097   19.3833 C.ar    1  UNL1        0.0222
     10 C          -8.1903  -19.6366   19.7381 C.ar    1  UNL1        0.0384
     11 C          -7.8199  -19.8390   21.1776 C.ar    1  UNL1        0.1388
     12 C          -8.7653  -19.4145   22.2621 C.ar    1  UNL1        0.0382
     13 C         -10.0810  -18.7877   21.9071 C.ar    1  UNL1        0.0190
     14 O          -6.5043  -20.4659   21.5324 O.3     1  UNL1       -0.4714
     15 C          -5.3674  -19.6080   22.0033 C.3     1  UNL1        0.2525
     16 C          -7.6827  -15.8187   26.3969 C.3     1  UNL1        0.0381
     17 C          -8.2474  -16.9812   27.1585 C.3     1  UNL1        0.0765
     18 N          -9.2385  -17.8968   26.5032 N.3     1  UNL1       -0.2712
     19 C          -9.6649  -17.6500   25.0864 C.3     1  UNL1        0.0722
     20 C          -9.1002  -16.4876   24.3249 C.3     1  UNL1        0.0177
     21 C          -8.1091  -15.5719   24.9802 C.3     1  UNL1        0.0082
     22 C          -8.9012  -16.6027   24.9861 C.3     1  UNL1        0.0192
     23 C          -9.2024  -17.2227   25.3922 C.3     1  UNL1        0.0888
     24 C          -5.3188  -14.7433   26.4694 C.2     1  UNL1       -0.0049
     25 C          -6.6917  -14.9031   27.0522 C.2     1  UNL1       -0.0251
@<TRIPOS>BOND
     1    24    25    2
     2    16    25    1
     3    16    17    1
     4    17    18    1
     5    18    19    1
     6    19    20    1
     7    21    20    1
     8    21    22    1
     9    23    22    1
    10    23     1    1
    11     1     2    1
    12     1     4    1
    13     4     5   ar
    14     5     6   ar
    15     6     7   ar
    16     7     8   ar
    17     8     9   ar
    18     9    10   ar
    19    10    11   ar
    20    11    14    1
    21    14    15    1
    22    11    12   ar
    23    12    13   ar
    24    21    16    1
    25    13     4   ar
    26    23    18    1
    27    13     8   ar
    28     2     3    1
@<TRIPOS>MOLECULE
*****
 25 28 0 0 0
SMALL
GASTEIGER

@<TRIPOS>ATOM
      1 C          -8.8142  -17.5816   22.1418 C.3     1  UNL1        0.1473
      2 O          -8.5086  -18.1037   20.7692 O.3     1  UNL1       -0.3787
      3 H          -7.5839  -17.9109   20.5484 H       1  UNL1        0.2108
      4 C          -7.7470  -16.8868   22.9347 C.ar    1  UNL1        0.0087
      5 C          -8.0905  -15.6830   23.7610 C.ar    1  UNL1        0.0188
      6 C          -7.0234  -14.9884   24.5539 C.ar    1  UNL1        0.0986
      7 N          -5.6129  -15.4976   24.5205 N.ar    1  UNL1       -0.2439
      8 C          -5.2694  -16.7014   23.6943 C.ar    1  UNL1        0.0813
      9 C          -3.8589  -17.2106   23.6609 C.ar    1  UNL1        0.0222
     10 C          -3.5154  -18.4144   22.8346 C.ar    1  UNL1        0.0384
     11 C          -4.5825  -19.1091   22.0417 C.ar    1  UNL1        0.1388
     12 C          -5.9931  -18.5999   22.0750 C.ar    1  UNL1        0.0382
     13 C          -6.3365  -17.3960   22.9014 C.ar    1  UNL1        0.0190
     14 O          -4.2391  -20.3130   21.2154 O.3     1  UNL1       -0.4714
     15 C          -5.1860  -20.7891   20.1539 C.3     1  UNL1        0.2525
     16 C         -12.9321  -18.0992   23.8808 C.3     1  UNL1        0.0381
     17 C         -11.7937  -18.9345   24.3872 C.3     1  UNL1        0.0765
     18 N         -10.4210  -18.7619   23.8075 N.3     1  UNL1       -0.2712
     19 C         -10.1868  -17.7541   22.7214 C.3     1  UNL1        0.0722
     20 C         -11.3252  -16.9189   22.2151 C.3     1  UNL1        0.0177
     21 C         -12.6979  -17.0915   22.7947 C.3     1  UNL1        0.0082
     22 C         -11.4345  -17.3892   22.7219 C.3     1  UNL1        0.0192
     23 C         -10.8274  -17.8346   22.9919 C.3     1  UNL1        0.0888
     24 C         -14.4760  -18.4668   25.9378 C.2     1  UNL1       -0.0049
     25 C         -14.3048  -18.2718   24.4604 C.2     1  UNL1       -0.0251
@<TRIPOS>BOND
     1    24    25    2
     2    16    25    1
     3    16    17    1
     4    17    18    1
     5    18    19    1
     6    19    20    1
     7    21    20    1
     8    21    22    1
     9    23    22    1
    10    23     1    1
    11     1     2    1
    12     1     4    1
    13     4     5   ar
    14     5     6   ar
    15     6     7   ar
    16     7     8   ar
    17     8     9   ar
    18     9    10   ar
    19    10    11   ar
    20    11    14    1
    21    14    15    1
    22    11    12   ar
    23    12    13   ar
    24    21    16    1
    25    13     4   ar
    26    23    18    1
    27    13     8   ar
    28     2     3    1
@<TRIPOS>MOLECULE
*****
 25 28 0 0 0
SMALL
GASTEIGER

@<TRIPOS>ATOM
      1 C          -9.1544  -17.4983   21.8978 C.3     1  UNL1        0.1473
      2 O          -8.3519  -16.2577   22.1563 O.3     1  UNL1       -0.3787
      3 H          -7.5314  -16.2899   21.6398 H       1  UNL1        0.2108
      4 C          -8.6360  -18.5442   20.9557 C.ar    1  UNL1        0.0087
      5 C          -9.5305  -19.1019   19.8885 C.ar    1  UNL1        0.0188
      6 C          -9.0121  -20.1477   18.9465 C.ar    1  UNL1        0.0986
      7 N          -7.5992  -20.6358   19.0715 N.ar    1  UNL1       -0.2439
      8 C          -6.7048  -20.0781   20.1387 C.ar    1  UNL1        0.0813
      9 C          -5.2919  -20.5661   20.2638 C.ar    1  UNL1        0.0222
     10 C          -4.3975  -20.0084   21.3309 C.ar    1  UNL1        0.0384
     11 C          -4.9158  -18.9625   22.2730 C.ar    1  UNL1        0.1388
     12 C          -6.3287  -18.4745   22.1480 C.ar    1  UNL1        0.0382
     13 C          -7.2232  -19.0322   21.0807 C.ar    1  UNL1        0.0190
     14 O          -4.0214  -18.4048   23.3402 O.3     1  UNL1       -0.4714
     15 C          -2.7725  -17.6655   22.9612 C.3     1  UNL1        0.2525
     16 C         -13.1171  -18.0827   23.9485 C.3     1  UNL1        0.0381
     17 C         -13.0286  -17.2321   22.7161 C.3     1  UNL1        0.0765
     18 N         -11.7077  -17.0373   22.0325 N.3     1  UNL1       -0.2712
     19 C         -10.4753  -17.6931   22.5814 C.3     1  UNL1        0.0722
     20 C         -10.5638  -18.5437   23.8137 C.3     1  UNL1        0.0177
     21 C         -11.8847  -18.7385   24.4972 C.3     1  UNL1        0.0082
     22 C         -11.1389  -18.2376   23.5576 C.3     1  UNL1        0.0192
     23 C         -11.0917  -17.7840   22.9003 C.3     1  UNL1        0.0888
     24 C         -14.4900  -18.4955   26.1152 C.2     1  UNL1       -0.0049
     25 C         -14.4380  -18.2775   24.6320 C.2     1  UNL1       -0.0251
@<TRIPOS>BOND
     1    24    25    2
     2    16    25    1
     3    16    17    1
     4    17    18    1
     5    18    19    1
     6    19    20    1
     7    21    20    1
     8    21    22    1
     9    23    22    1
    10    23     1    1
    11     1     2    1
    12     1     4    1
    13     4     5   ar
    14     5     6   ar
    15     6     7   ar
    16     7     8   ar
    17     8     9   ar
    18     9    10   ar
    19    10    11   ar
    20    11    14    1
    21    14    15    1
    22    11    12   ar
    23    12    13   ar
    24    21    16    1
    25    13     4   ar
    26    23    18    1
    27    13     8   ar
    28     2     3    1
@<TRIPOS>MOLECULE
*****
 25 28 0 0 0
SMALL
GASTEIGER

@<TRIPOS>ATOM
      1 C          -7.9681  -15.9981   22.5598 C.3     1  UNL1        0.1473
      2 O          -7.7989  -14.5856   22.0845 O.3     1  UNL1       -0.3787
      3 H          -6.8555  -14.3970   21.9605 H       1  UNL1        0.2108
      4 C          -6.7645  -16.8691   22.7668 C.ar    1  UNL1        0.0087
      5 C          -5.7310  -16.4904   23.7859 C.ar    1  UNL1        0.0188
      6 C          -4.5275  -17.3614   23.9929 C.ar    1  UNL1        0.0986
      7 N          -4.3574  -18.6110   23.1807 N.ar    1  UNL1       -0.2439
      8 C          -5.3908  -18.9897   22.1617 C.ar    1  UNL1        0.0813
      9 C          -5.2208  -20.2393   21.3496 C.ar    1  UNL1        0.0222
     10 C          -6.2542  -20.6179   20.3305 C.ar    1  UNL1        0.0384
     11 C          -7.4578  -19.7470   20.1235 C.ar    1  UNL1        0.1388
     12 C          -7.6279  -18.4974   20.9356 C.ar    1  UNL1        0.0382
     13 C          -6.5944  -18.1187   21.9547 C.ar    1  UNL1        0.0190
     14 O          -8.4913  -20.1256   19.1044 O.3     1  UNL1       -0.4714
     15 C          -9.9188  -19.7047   19.2917 C.3     1  UNL1        0.2525
     16 C         -12.0865  -17.6232   23.3649 C.3     1  UNL1        0.0381
     17 C         -11.8536  -16.7178   22.1918 C.3     1  UNL1        0.0765
     18 N         -10.4808  -16.1761   21.9234 N.3     1  UNL1       -0.2712
     19 C          -9.3409  -16.5398   22.8282 C.3     1  UNL1        0.0722
     20 C          -9.5739  -17.4451   24.0012 C.3     1  UNL1        0.0177
     21 C         -10.9467  -17.9868   24.2696 C.3     1  UNL1        0.0082
     22 C         -10.1058  -17.2754   23.5790 C.3     1  UNL1        0.0192
     23 C          -9.9815  -16.7926   22.9534 C.3     1  UNL1        0.0888
     24 C         -13.9068  -18.4088   25.0440 C.2     1  UNL1       -0.0049
     25 C         -13.4593  -18.1648   23.6332 C.2     1  UNL1       -0.0251
@<TRIPOS>BOND
     1    24    25    2
     2    16    25    1
     3    16    17    1
     4    17    18    1
     5    18    19    1
     6    19    20    1
     7    21    20    1
     8    21    22    1
     9    23    22    1
    10    23     1    1
    11     1     2    1
    12     1     4    1
    13     4     5   ar
    14     5     6   ar
    15     6     7   ar
    16     7     8   ar
    17     8     9   ar
    18     9    10   ar
    19    10    11   ar
    20    11    14    1
    21    14    15    1
    22    11    12   ar
    23    12    13   ar
    24    21    16    1
    25    13     4   ar
    26    23    18    1
    27    13     8   ar
    28     2     3    1
@<TRIPOS>MOLECULE
*****
 25 28 0 0 0
SMALL
GASTEIGER

@<TRIPOS>ATOM
      1 C          -6.1166  -19.3851   22.0095 C.3     1  UNL1        0.1473
      2 O          -6.4244  -20.7948   22.4190 O.3     1  UNL1       -0.3787
      3 H          -7.3052  -20.8290   22.8239 H       1  UNL1        0.2108
      4 C          -7.1196  -18.2969   22.2546 C.ar    1  UNL1        0.0087
      5 C          -6.8558  -17.2556   23.3015 C.ar    1  UNL1        0.0188
      6 C          -7.8588  -16.1676   23.5466 C.ar    1  UNL1        0.0986
      7 N          -9.1256  -16.1207   22.7447 N.ar    1  UNL1       -0.2439
      8 C          -9.3894  -17.1620   21.6977 C.ar    1  UNL1        0.0813
      9 C         -10.6561  -17.1152   20.8958 C.ar    1  UNL1        0.0222
     10 C         -10.9199  -18.1564   19.8488 C.ar    1  UNL1        0.0384
     11 C          -9.9169  -19.2446   19.6037 C.ar    1  UNL1        0.1388
     12 C          -8.6502  -19.2914   20.4057 C.ar    1  UNL1        0.0382
     13 C          -8.3864  -18.2501   21.4527 C.ar    1  UNL1        0.0190
     14 O         -10.1808  -20.2858   18.5568 O.3     1  UNL1       -0.4714
     15 C          -9.0375  -21.0359   17.9402 C.3     1  UNL1        0.2525
     16 C          -2.1844  -18.4198   20.0459 C.3     1  UNL1        0.0381
     17 C          -3.4287  -18.5349   19.2162 C.3     1  UNL1        0.0765
     18 N          -4.7395  -18.8567   19.8707 N.3     1  UNL1       -0.2712
     19 C          -4.8059  -19.0633   21.3550 C.3     1  UNL1        0.0722
     20 C          -3.5615  -18.9482   22.1846 C.3     1  UNL1        0.0177
     21 C          -2.2508  -18.6265   21.5301 C.3     1  UNL1        0.0082
     22 C          -3.5305  -18.8518   21.4920 C.3     1  UNL1        0.0192
     23 C          -4.1942  -18.9132   21.0495 C.3     1  UNL1        0.0888
     24 C           0.2260  -17.4606   20.1879 C.2     1  UNL1       -0.0049
     25 C          -0.8736  -18.0981   19.3914 C.2     1  UNL1       -0.0251
@<TRIPOS>BOND
     1    24    25    2
     2    16    25    1
     3    16    17    1
     4    17    18    1
     5    18    19    1
     6    19    20    1
     7    21    20    1
     8    21    22    1
     9    23    22    1
    10    23     1    1
    11     1     2    1
    12     1     4    1
    13     4     5   ar
    14     5     6   ar
    15     6     7   ar
    16     7     8   ar
    17     8     9   ar
    18     9    10   ar
    19    10    11   ar
    20    11    14    1
    21    14    15    1
    22    11    12   ar
    23    12    13   ar
    24    21    16    1
    25    13     4   ar
    26    23    18    1
    27    13     8   ar
    28     2     3    1
@<TRIPOS>MOLECULE
*****
 25 28 0 0 0
SMALL
GASTEIGER

@<TRIPOS>ATOM
      1 C          -7.9633  -17.0939   23.5751 C.3     1  UNL1        0.1473
      2 O          -7.6010  -15.8763   24.3726 O.3     1  UNL1       -0.3787
      3 H          -8.3953  -15.5241   24.8038 H       1  UNL1        0.2108
      4 C          -9.3838  -17.5752   23.5445 C.ar    1  UNL1        0.0087
      5 C          -9.8714  -18.5396   24.5846 C.ar    1  UNL1        0.0188
      6 C         -11.2918  -19.0209   24.5540 C.ar    1  UNL1        0.0986
      7 N         -12.2245  -18.5376   23.4832 N.ar    1  UNL1       -0.2439
      8 C         -11.7368  -17.5731   22.4431 C.ar    1  UNL1        0.0813
      9 C         -12.6695  -17.0898   21.3723 C.ar    1  UNL1        0.0222
     10 C         -12.1818  -16.1253   20.3322 C.ar    1  UNL1        0.0384
     11 C         -10.7614  -15.6441   20.3628 C.ar    1  UNL1        0.1388
     12 C          -9.8287  -16.1274   21.4336 C.ar    1  UNL1        0.0382
     13 C         -10.3165  -17.0919   22.4737 C.ar    1  UNL1        0.0190
     14 O         -10.2738  -14.6796   19.3227 O.3     1  UNL1       -0.4714
     15 C          -9.1565  -13.7317   19.6438 C.3     1  UNL1        0.2525
     16 C          -4.7892  -19.3031   21.2740 C.3     1  UNL1        0.0381
     17 C          -4.3982  -18.2606   22.2793 C.3     1  UNL1        0.0765
     18 N          -5.4563  -17.5242   23.0463 N.3     1  UNL1       -0.2712
     19 C          -6.9053  -17.8303   22.8081 C.3     1  UNL1        0.0722
     20 C          -7.2962  -18.8727   21.8028 C.3     1  UNL1        0.0177
     21 C          -6.2382  -19.6090   21.0358 C.3     1  UNL1        0.0082
     22 C          -6.6200  -18.7299   21.9140 C.3     1  UNL1        0.0192
     23 C          -6.4115  -18.1739   22.4501 C.3     1  UNL1        0.0888
     24 C          -3.0900  -19.4003   19.3111 C.2     1  UNL1       -0.0049
     25 C          -3.7312  -20.0394   20.5070 C.2     1  UNL1       -0.0251
@<TRIPOS>BOND
     1    24    25    2
     2    16    25    1
     3    16    17    1
     4    17    18    1
     5    18    19    1
     6    19    20    1
     7    21    20    1
     8    21    22    1
     9    23    22    1
    10    23     1    1
    11     1     2    1
    12     1     4    1
    13     4     5   ar
    14     5     6   ar
    15     6     7   ar
    16     7     8   ar
    17     8     9   ar
    18     9    10   ar
    19    10    11   ar
    20    11    14    1
    21    14    15    1
    22    11    12   ar
    23    12    13   ar
    24    21    16    1
    25    13     4   ar
    26    23    18    1
    27    13     8   ar
    28     2     3    1
