@<TRIPOS>MOLECULE
*****
 40 44 0 0 0
SMALL
GASTEIGER

@<TRIPOS>ATOM
      1 N           6.8560   -5.1461   31.9195 N.am    1  UNL1       -0.2903
      2 C           6.3118   -3.7523   32.0256 C.2     1  UNL1        0.3044
      3 O           6.9442   -2.6389   31.2445 O.2     1  UNL1       -0.2525
      4 N           5.1353   -3.4721   32.9128 N.am    1  UNL1       -0.2682
      5 H           6.4410   -5.8769   32.4322 H       1  UNL1        0.1509
      6 H           4.7202   -4.2029   33.4255 H       1  UNL1        0.1564
      7 C           4.5911   -2.0783   33.0189 C.ar    1  UNL1        0.0546
      8 C           3.7679   -1.5076   31.9023 C.ar    1  UNL1        0.0339
      9 C           3.2237   -0.1138   32.0084 C.ar    1  UNL1        0.0856
     10 C           3.5027    0.7092   33.2310 C.ar    1  UNL1        0.0384
     11 C           4.3258    0.1385   34.3475 C.ar    1  UNL1        0.0856
     12 C           4.8700   -1.2553   34.2415 C.ar    1  UNL1        0.0339
     13 N           2.4005    0.4569   30.8919 N.ar    1  UNL1       -0.2281
     14 C           2.3836    1.8912   30.4530 C.ar    1  UNL1        0.1020
     15 C           1.4224    2.0143   29.3080 C.ar    1  UNL1        0.0431
     16 C           0.8452    0.6561   29.0392 C.ar    1  UNL1        0.1221
     17 N           1.4498   -0.3065   30.0181 N.ar    1  UNL1       -0.1635
     18 N           4.6048    0.9616   35.5702 N.ar    1  UNL1       -0.2281
     19 C           4.9320    0.4308   36.9345 C.ar    1  UNL1        0.1020
     20 C           5.1349    1.6012   37.8506 C.ar    1  UNL1        0.0431
     21 C           4.9331    2.8551   37.0525 C.ar    1  UNL1        0.1221
     22 N           4.6055    2.4598   35.6432 N.ar    1  UNL1       -0.1635
     23 C           9.3994   -4.9506   31.4266 C.3     1  UNL1        0.0214
     24 C           8.0326   -5.4263   31.0323 C.3     1  UNL1        0.0745
     25 C           7.8423   -6.1824   29.7508 C.3     1  UNL1        0.0369
     26 C           7.0204   -5.5894   28.6451 C.3     1  UNL1        0.0738
     27 N           7.3337   -5.9221   27.2163 N.3     1  UNL1       -0.2726
     28 C           7.5406   -7.3501   26.8068 C.3     1  UNL1        0.0721
     29 C           7.8539   -7.6828   25.3781 C.3     1  UNL1        0.0174
     30 C           7.9602   -6.5874   24.3590 C.3     1  UNL1        0.0031
     31 C           7.7533   -5.1593   24.7685 C.3     1  UNL1        0.0204
     32 C           7.4401   -4.8266   26.1971 C.3     1  UNL1        0.0724
     33 C           7.8597   -4.0638   23.7493 C.3     1  UNL1        0.0277
     34 C           6.7941   -3.9043   22.7057 C.ar    1  UNL1       -0.0220
     35 C           7.1463   -4.0115   21.2516 C.ar    1  UNL1       -0.0020
     36 C           6.0807   -3.8519   20.2080 C.ar    1  UNL1        0.0293
     37 C           4.6629   -3.5852   20.6186 C.ar    1  UNL1        0.1401
     38 F           3.5973   -3.4256   19.5749 F       1  UNL1       -0.2042
     39 C           4.3106   -3.4780   22.0726 C.ar    1  UNL1        0.0293
     40 C           5.3762   -3.6375   23.1163 C.ar    1  UNL1       -0.0020
@<TRIPOS>BOND
     1    24    23    1
     2    24    25    1
     3    25    26    1
     4    26    27    1
     5    27    28    1
     6    28    29    1
     7    29    30    1
     8    30    31    1
     9    31    33    1
    10    33    34    1
    11    34    35   ar
    12    35    36   ar
    13    36    37   ar
    14    37    38    1
    15    37    39   ar
    16    39    40   ar
    17    31    32    1
    18    24     1    1
    19     1     2   am
    20     2     3    2
    21     2     4   am
    22     4     7    1
    23     7     8   ar
    24     8     9   ar
    25     9    13    1
    26    13    14   ar
    27    14    15   ar
    28    15    16   ar
    29    16    17   ar
    30     9    10   ar
    31    10    11   ar
    32    11    18    1
    33    18    19   ar
    34    19    20   ar
    35    20    21   ar
    36    21    22   ar
    37    11    12   ar
    38    32    27    1
    39    12     7   ar
    40    40    34   ar
    41    17    13   ar
    42    22    18   ar
    43     1     5    1
    44     4     6    1
@<TRIPOS>MOLECULE
*****
 40 44 0 0 0
SMALL
GASTEIGER

@<TRIPOS>ATOM
      1 N           6.8632   -5.1871   31.9074 N.am    1  UNL1       -0.2903
      2 C           6.3153   -3.7944   32.0087 C.2     1  UNL1        0.3044
      3 O           6.9287   -2.6869   31.2042 O.2     1  UNL1       -0.2525
      4 N           5.1541   -3.5093   32.9143 N.am    1  UNL1       -0.2682
      5 H           6.4606   -5.9140   32.4354 H       1  UNL1        0.1509
      6 H           4.7515   -4.2362   33.4422 H       1  UNL1        0.1564
      7 C           4.6062   -2.1166   33.0155 C.ar    1  UNL1        0.0546
      8 C           4.8181   -1.3163   34.2664 C.ar    1  UNL1        0.0339
      9 C           4.2703    0.0763   34.3676 C.ar    1  UNL1        0.0856
     10 C           3.5104    0.6688   33.2180 C.ar    1  UNL1        0.0384
     11 C           3.2985   -0.1314   31.9671 C.ar    1  UNL1        0.0856
     12 C           3.8464   -1.5242   31.8659 C.ar    1  UNL1        0.0339
     13 N           4.4822    0.8766   35.6185 N.ar    1  UNL1       -0.2281
     14 C           4.9488    2.3006   35.6857 C.ar    1  UNL1        0.1020
     15 C           5.0198    2.6975   37.1305 C.ar    1  UNL1        0.0431
     16 C           4.5971    1.5187   37.9563 C.ar    1  UNL1        0.1221
     17 N           4.2649    0.3933   37.0218 N.ar    1  UNL1       -0.1635
     18 N           2.5386    0.4610   30.8175 N.ar    1  UNL1       -0.2281
     19 C           2.8623    1.7466   30.1157 C.ar    1  UNL1        0.1020
     20 C           1.8454    1.9520   29.0322 C.ar    1  UNL1        0.0431
     21 C           0.8933    0.7934   29.0645 C.ar    1  UNL1        0.1221
     22 N           1.3217   -0.1281   30.1678 N.ar    1  UNL1       -0.1635
     23 C           9.4026   -5.0204   31.3845 C.3     1  UNL1        0.0214
     24 C           8.0245   -5.4722   31.0018 C.3     1  UNL1        0.0745
     25 C           7.8075   -6.2093   29.7135 C.3     1  UNL1        0.0369
     26 C           7.0450   -5.5596   28.5970 C.3     1  UNL1        0.0738
     27 N           7.3637   -5.9029   27.1719 N.3     1  UNL1       -0.2726
     28 C           7.5858   -7.3327   26.7765 C.3     1  UNL1        0.0721
     29 C           7.9045   -7.6758   25.3515 C.3     1  UNL1        0.0174
     30 C           8.0010   -6.5893   24.3220 C.3     1  UNL1        0.0031
     31 C           7.7789   -5.1595   24.7174 C.3     1  UNL1        0.0204
     32 C           7.4603   -4.8163   26.1424 C.3     1  UNL1        0.0724
     33 C           7.8755   -4.0729   23.6878 C.3     1  UNL1        0.0277
     34 C           6.7946   -3.9156   22.6598 C.ar    1  UNL1       -0.0220
     35 C           7.1282   -4.0099   21.2003 C.ar    1  UNL1       -0.0020
     36 C           6.0473   -3.8526   20.1723 C.ar    1  UNL1        0.0293
     37 C           4.6329   -3.6010   20.6036 C.ar    1  UNL1        0.1401
     38 F           3.5520   -3.4437   19.5754 F       1  UNL1       -0.2042
     39 C           4.2993   -3.5068   22.0629 C.ar    1  UNL1        0.0293
     40 C           5.3802   -3.6641   23.0911 C.ar    1  UNL1       -0.0020
@<TRIPOS>BOND
     1    24    23    1
     2    24    25    1
     3    25    26    1
     4    26    27    1
     5    27    28    1
     6    28    29    1
     7    29    30    1
     8    30    31    1
     9    31    33    1
    10    33    34    1
    11    34    35   ar
    12    35    36   ar
    13    36    37   ar
    14    37    38    1
    15    37    39   ar
    16    39    40   ar
    17    31    32    1
    18    24     1    1
    19     1     2   am
    20     2     3    2
    21     2     4   am
    22     4     7    1
    23     7     8   ar
    24     8     9   ar
    25     9    13    1
    26    13    14   ar
    27    14    15   ar
    28    15    16   ar
    29    16    17   ar
    30     9    10   ar
    31    10    11   ar
    32    11    18    1
    33    18    19   ar
    34    19    20   ar
    35    20    21   ar
    36    21    22   ar
    37    11    12   ar
    38    32    27    1
    39    12     7   ar
    40    40    34   ar
    41    17    13   ar
    42    22    18   ar
    43     1     5    1
    44     4     6    1
@<TRIPOS>MOLECULE
*****
 40 44 0 0 0
SMALL
GASTEIGER

@<TRIPOS>ATOM
      1 N          -0.3814    0.9803   25.9103 N.am    1  UNL1       -0.2903
      2 C           0.3620    1.2243   27.1900 C.2     1  UNL1        0.3044
      3 O           1.0879    2.5199   27.4003 O.2     1  UNL1       -0.2525
      4 N           0.3794    0.1727   28.2595 N.am    1  UNL1       -0.2682
      5 H          -0.8579    0.1300   25.7722 H       1  UNL1        0.1509
      6 H          -0.0971   -0.6777   28.1215 H       1  UNL1        0.1564
      7 C           1.1228    0.4167   29.5392 C.ar    1  UNL1        0.0546
      8 C           2.2184   -0.5175   29.9600 C.ar    1  UNL1        0.0339
      9 C           2.9618   -0.2735   31.2397 C.ar    1  UNL1        0.0856
     10 C           2.6096    0.9046   32.0988 C.ar    1  UNL1        0.0384
     11 C           1.5140    1.8388   31.6781 C.ar    1  UNL1        0.0856
     12 C           0.7706    1.5948   30.3983 C.ar    1  UNL1        0.0339
     13 N           4.0574   -1.2077   31.6604 N.ar    1  UNL1       -0.2281
     14 C           5.4264   -1.2915   31.0530 C.ar    1  UNL1        0.1020
     15 C           6.1915   -2.3576   31.7796 C.ar    1  UNL1        0.0431
     16 C           5.2953   -2.9328   32.8361 C.ar    1  UNL1        0.1221
     17 N           3.9764   -2.2221   32.7624 N.ar    1  UNL1       -0.1635
     18 N           1.1619    3.0169   32.5371 N.ar    1  UNL1       -0.2281
     19 C           1.8171    3.3898   33.8340 C.ar    1  UNL1        0.1020
     20 C           1.1528    4.6324   34.3485 C.ar    1  UNL1        0.0431
     21 C           0.0870    5.0275   33.3697 C.ar    1  UNL1        0.1221
     22 N           0.0926    4.0291   32.2502 N.ar    1  UNL1       -0.1635
     23 C          -1.4202    3.1296   24.8848 C.3     1  UNL1        0.0214
     24 C          -0.3989    2.0320   24.8408 C.3     1  UNL1        0.0745
     25 C           0.6052    1.9859   23.7273 C.3     1  UNL1        0.0369
     26 C           0.3156    2.6760   22.4273 C.3     1  UNL1        0.0738
     27 N           0.6268    1.9916   21.1292 N.3     1  UNL1       -0.2726
     28 C           0.3822    2.7005   19.8302 C.3     1  UNL1        0.0721
     29 C           0.6934    2.0161   18.5322 C.3     1  UNL1        0.0174
     30 C           1.2492    0.6229   18.5333 C.3     1  UNL1        0.0031
     31 C           1.4939   -0.0860   19.8324 C.3     1  UNL1        0.0204
     32 C           1.1826    0.5984   21.1304 C.3     1  UNL1        0.0724
     33 C           2.0497   -1.4792   19.8335 C.3     1  UNL1        0.0277
     34 C           3.4723   -1.7194   19.4230 C.ar    1  UNL1       -0.0220
     35 C           4.4817   -0.6155   19.5345 C.ar    1  UNL1       -0.0020
     36 C           5.9043   -0.8557   19.1240 C.ar    1  UNL1        0.0293
     37 C           6.3175   -2.1999   18.6021 C.ar    1  UNL1        0.1401
     38 F           7.7401   -2.4402   18.1916 F       1  UNL1       -0.2042
     39 C           5.3081   -3.3039   18.4906 C.ar    1  UNL1        0.0293
     40 C           3.8854   -3.0636   18.9011 C.ar    1  UNL1       -0.0020
@<TRIPOS>BOND
     1    24    23    1
     2    24    25    1
     3    25    26    1
     4    26    27    1
     5    27    28    1
     6    28    29    1
     7    29    30    1
     8    30    31    1
     9    31    33    1
    10    33    34    1
    11    34    35   ar
    12    35    36   ar
    13    36    37   ar
    14    37    38    1
    15    37    39   ar
    16    39    40   ar
    17    31    32    1
    18    24     1    1
    19     1     2   am
    20     2     3    2
    21     2     4   am
    22     4     7    1
    23     7     8   ar
    24     8     9   ar
    25     9    13    1
    26    13    14   ar
    27    14    15   ar
    28    15    16   ar
    29    16    17   ar
    30     9    10   ar
    31    10    11   ar
    32    11    18    1
    33    18    19   ar
    34    19    20   ar
    35    20    21   ar
    36    21    22   ar
    37    11    12   ar
    38    32    27    1
    39    12     7   ar
    40    40    34   ar
    41    17    13   ar
    42    22    18   ar
    43     1     5    1
    44     4     6    1
@<TRIPOS>MOLECULE
*****
 40 44 0 0 0
SMALL
GASTEIGER

@<TRIPOS>ATOM
      1 N          -0.3305    0.9865   25.9613 N.am    1  UNL1       -0.2903
      2 C           0.4513    1.1906   27.2251 C.2     1  UNL1        0.3044
      3 O           1.1656    2.4878   27.4638 O.2     1  UNL1       -0.2525
      4 N           0.5188    0.0975   28.2501 N.am    1  UNL1       -0.2682
      5 H          -0.7994    0.1351   25.8046 H       1  UNL1        0.1509
      6 H           0.0499   -0.7539   28.0933 H       1  UNL1        0.1564
      7 C           1.3006    0.3016   29.5138 C.ar    1  UNL1        0.0546
      8 C           0.9692    1.4470   30.4240 C.ar    1  UNL1        0.0339
      9 C           1.7510    1.6511   31.6878 C.ar    1  UNL1        0.0856
     10 C           2.8642    0.7098   32.0414 C.ar    1  UNL1        0.0384
     11 C           3.1955   -0.4355   31.1312 C.ar    1  UNL1        0.0856
     12 C           2.4137   -0.6396   29.8674 C.ar    1  UNL1        0.0339
     13 N           1.4197    2.7964   32.5979 N.ar    1  UNL1       -0.2281
     14 C           2.0767    3.0965   33.9126 C.ar    1  UNL1        0.1020
     15 C           1.4363    4.3283   34.4805 C.ar    1  UNL1        0.0431
     16 C           0.3834    4.7896   33.5167 C.ar    1  UNL1        0.1221
     17 N           0.3732    3.8428   32.3532 N.ar    1  UNL1       -0.1635
     18 N           4.3086   -1.3767   31.4848 N.ar    1  UNL1       -0.2281
     19 C           4.4205   -2.1741   32.7505 C.ar    1  UNL1        0.1020
     20 C           5.6864   -2.9760   32.6827 C.ar    1  UNL1        0.0431
     21 C           6.3568   -2.6743   31.3752 C.ar    1  UNL1        0.1221
     22 N           5.5054   -1.6858   30.6349 N.ar    1  UNL1       -0.1635
     23 C          -1.3681    3.2105   25.1088 C.3     1  UNL1        0.0214
     24 C          -0.3980    2.0796   24.9363 C.3     1  UNL1        0.0745
     25 C           0.5046    2.0416   23.7389 C.3     1  UNL1        0.0369
     26 C           0.0068    2.5243   22.4088 C.3     1  UNL1        0.0738
     27 N           0.4659    1.8539   21.1478 N.3     1  UNL1       -0.2726
     28 C           0.2903    2.5413   19.8263 C.3     1  UNL1        0.0721
     29 C           0.7494    1.8710   18.5654 C.3     1  UNL1        0.0174
     30 C           1.3841    0.5132   18.6262 C.3     1  UNL1        0.0031
     31 C           1.5596   -0.1742   19.9477 C.3     1  UNL1        0.0204
     32 C           1.1005    0.4962   21.2086 C.3     1  UNL1        0.0724
     33 C           2.1943   -1.5320   20.0085 C.3     1  UNL1        0.0277
     34 C           3.6107   -1.7189   19.5516 C.ar    1  UNL1       -0.0220
     35 C           4.6428   -0.6755   19.8620 C.ar    1  UNL1       -0.0020
     36 C           6.0592   -0.8624   19.4052 C.ar    1  UNL1        0.0293
     37 C           6.4437   -2.0927   18.6379 C.ar    1  UNL1        0.1401
     38 F           7.8602   -2.2796   18.1811 F       1  UNL1       -0.2042
     39 C           5.4117   -3.1360   18.3275 C.ar    1  UNL1        0.0293
     40 C           3.9952   -2.9491   18.7844 C.ar    1  UNL1       -0.0020
@<TRIPOS>BOND
     1    24    23    1
     2    24    25    1
     3    25    26    1
     4    26    27    1
     5    27    28    1
     6    28    29    1
     7    29    30    1
     8    30    31    1
     9    31    33    1
    10    33    34    1
    11    34    35   ar
    12    35    36   ar
    13    36    37   ar
    14    37    38    1
    15    37    39   ar
    16    39    40   ar
    17    31    32    1
    18    24     1    1
    19     1     2   am
    20     2     3    2
    21     2     4   am
    22     4     7    1
    23     7     8   ar
    24     8     9   ar
    25     9    13    1
    26    13    14   ar
    27    14    15   ar
    28    15    16   ar
    29    16    17   ar
    30     9    10   ar
    31    10    11   ar
    32    11    18    1
    33    18    19   ar
    34    19    20   ar
    35    20    21   ar
    36    21    22   ar
    37    11    12   ar
    38    32    27    1
    39    12     7   ar
    40    40    34   ar
    41    17    13   ar
    42    22    18   ar
    43     1     5    1
    44     4     6    1
@<TRIPOS>MOLECULE
*****
 40 44 0 0 0
SMALL
GASTEIGER

@<TRIPOS>ATOM
      1 N          -1.5407    3.2037   19.9255 N.am    1  UNL1       -0.2903
      2 C          -0.3253    2.5137   20.4701 C.2     1  UNL1        0.3044
      3 O           0.8442    3.3217   20.9490 O.2     1  UNL1       -0.2525
      4 N          -0.2794    1.0159   20.5359 N.am    1  UNL1       -0.2682
      5 H          -2.3084    2.6734   19.6112 H       1  UNL1        0.1509
      6 H          -1.0470    0.4856   20.2216 H       1  UNL1        0.1564
      7 C           0.9360    0.3260   21.0805 C.ar    1  UNL1        0.0546
      8 C           1.7497   -0.5704   20.1948 C.ar    1  UNL1        0.0339
      9 C           2.9652   -1.2604   20.7394 C.ar    1  UNL1        0.0856
     10 C           3.3670   -1.0540   22.1698 C.ar    1  UNL1        0.0384
     11 C           2.5533   -0.1576   23.0555 C.ar    1  UNL1        0.0856
     12 C           1.3378    0.5323   22.5109 C.ar    1  UNL1        0.0339
     13 N           3.7788   -2.1567   19.8537 N.ar    1  UNL1       -0.2281
     14 C           4.9247   -1.7323   18.9837 C.ar    1  UNL1        0.1020
     15 C           5.4436   -2.9481   18.2747 C.ar    1  UNL1        0.0431
     16 C           4.6183   -4.1239   18.7065 C.ar    1  UNL1        0.1221
     17 N           3.5894   -3.6348   19.6824 N.ar    1  UNL1       -0.1635
     18 N           2.9551    0.0487   24.4859 N.ar    1  UNL1       -0.2281
     19 C           2.8242    1.3251   25.2631 C.ar    1  UNL1        0.1020
     20 C           3.3466    1.0801   26.6478 C.ar    1  UNL1        0.0431
     21 C           3.8003   -0.3474   26.7263 C.ar    1  UNL1        0.1221
     22 N           3.5584   -0.9848   25.3902 N.ar    1  UNL1       -0.1635
     23 C          -0.8335    5.4285   18.7854 C.3     1  UNL1        0.0214
     24 C          -1.5866    4.7015   19.8597 C.3     1  UNL1        0.0745
     25 C          -2.3857    5.4724   20.8684 C.3     1  UNL1        0.0369
     26 C          -1.7705    5.8486   22.1836 C.3     1  UNL1        0.0738
     27 N          -2.1407    5.0963   23.4274 N.3     1  UNL1       -0.2726
     28 C          -3.3602    5.4898   24.2070 C.3     1  UNL1        0.0721
     29 C          -3.7303    4.7375   25.4507 C.3     1  UNL1        0.0174
     30 C          -2.8809    3.5915   25.9149 C.3     1  UNL1        0.0031
     31 C          -1.6614    3.1980   25.1352 C.3     1  UNL1        0.0204
     32 C          -1.2913    3.9503   23.8915 C.3     1  UNL1        0.0724
     33 C          -0.8120    2.0520   25.5993 C.3     1  UNL1        0.0277
     34 C          -0.4016    1.9576   27.0390 C.ar    1  UNL1       -0.0220
     35 C          -0.7410    0.7335   27.8369 C.ar    1  UNL1       -0.0020
     36 C          -0.3305    0.6390   29.2765 C.ar    1  UNL1        0.0293
     37 C           0.4192    1.7686   29.9183 C.ar    1  UNL1        0.1401
     38 F           0.8297    1.6741   31.3580 F       1  UNL1       -0.2042
     39 C           0.7586    2.9926   29.1205 C.ar    1  UNL1        0.0293
     40 C           0.3482    3.0871   27.6808 C.ar    1  UNL1       -0.0020
@<TRIPOS>BOND
     1    24    23    1
     2    24    25    1
     3    25    26    1
     4    26    27    1
     5    27    28    1
     6    28    29    1
     7    29    30    1
     8    30    31    1
     9    31    33    1
    10    33    34    1
    11    34    35   ar
    12    35    36   ar
    13    36    37   ar
    14    37    38    1
    15    37    39   ar
    16    39    40   ar
    17    31    32    1
    18    24     1    1
    19     1     2   am
    20     2     3    2
    21     2     4   am
    22     4     7    1
    23     7     8   ar
    24     8     9   ar
    25     9    13    1
    26    13    14   ar
    27    14    15   ar
    28    15    16   ar
    29    16    17   ar
    30     9    10   ar
    31    10    11   ar
    32    11    18    1
    33    18    19   ar
    34    19    20   ar
    35    20    21   ar
    36    21    22   ar
    37    11    12   ar
    38    32    27    1
    39    12     7   ar
    40    40    34   ar
    41    17    13   ar
    42    22    18   ar
    43     1     5    1
    44     4     6    1
@<TRIPOS>MOLECULE
*****
 40 44 0 0 0
SMALL
GASTEIGER

@<TRIPOS>ATOM
      1 N           5.8412   -3.3409   20.2546 N.am    1  UNL1       -0.2903
      2 C           5.6979   -3.5976   21.7255 C.2     1  UNL1        0.3044
      3 O           4.4400   -4.2158   22.2598 O.2     1  UNL1       -0.2525
      4 N           6.8125   -3.2362   22.6620 N.am    1  UNL1       -0.2682
      5 H           6.6668   -2.9352   19.9038 H       1  UNL1        0.1509
      6 H           7.6381   -2.8305   22.3112 H       1  UNL1        0.1564
      7 C           6.6692   -3.4929   24.1328 C.ar    1  UNL1        0.0546
      8 C           7.1959   -4.7657   24.7269 C.ar    1  UNL1        0.0339
      9 C           7.0526   -5.0224   26.1977 C.ar    1  UNL1        0.0856
     10 C           6.3827   -4.0065   27.0747 C.ar    1  UNL1        0.0384
     11 C           5.8560   -2.7338   26.4807 C.ar    1  UNL1        0.0856
     12 C           5.9993   -2.4770   25.0098 C.ar    1  UNL1        0.0339
     13 N           7.5793   -6.2951   26.7917 N.ar    1  UNL1       -0.2281
     14 C           7.3542   -7.6778   26.2552 C.ar    1  UNL1        0.1020
     15 C           8.0593   -8.6459   27.1584 C.ar    1  UNL1        0.0431
     16 C           8.7202   -7.8616   28.2530 C.ar    1  UNL1        0.1221
     17 N           8.4235   -6.4087   28.0264 N.ar    1  UNL1       -0.1635
     18 N           5.1861   -1.7178   27.3576 N.ar    1  UNL1       -0.2281
     19 C           5.8502   -0.5420   28.0109 C.ar    1  UNL1        0.1020
     20 C           4.8089    0.2032   28.7923 C.ar    1  UNL1        0.0431
     21 C           3.5014   -0.5119   28.6219 C.ar    1  UNL1        0.1221
     22 N           3.7346   -1.6991   27.7353 N.ar    1  UNL1       -0.1635
     23 C           4.5274   -5.1305   18.9050 C.3     1  UNL1        0.0214
     24 C           4.7266   -3.7023   19.3181 C.3     1  UNL1        0.0745
     25 C           3.8111   -2.6355   18.7946 C.3     1  UNL1        0.0369
     26 C           2.9103   -1.8922   19.7358 C.3     1  UNL1        0.0738
     27 N           3.4977   -0.9969   20.7863 N.3     1  UNL1       -0.2726
     28 C           4.6194   -0.0649   20.4356 C.3     1  UNL1        0.0721
     29 C           5.2067    0.8304   21.4861 C.3     1  UNL1        0.0174
     30 C           4.6723    0.7937   22.8872 C.3     1  UNL1        0.0031
     31 C           3.5506   -0.1383   23.2378 C.3     1  UNL1        0.0204
     32 C           2.9632   -1.0336   22.1874 C.3     1  UNL1        0.0724
     33 C           3.0161   -0.1751   24.6389 C.3     1  UNL1        0.0277
     34 C           2.1004    0.9107   25.1210 C.ar    1  UNL1       -0.0220
     35 C           0.6729    0.9468   24.6616 C.ar    1  UNL1       -0.0020
     36 C          -0.2429    2.0326   25.1437 C.ar    1  UNL1        0.0293
     37 C           0.2688    3.0822   26.0852 C.ar    1  UNL1        0.1401
     38 F          -0.6471    4.1680   26.5674 F       1  UNL1       -0.2042
     39 C           1.6962    3.0461   26.5447 C.ar    1  UNL1        0.0293
     40 C           2.6120    1.9603   26.0626 C.ar    1  UNL1       -0.0020
@<TRIPOS>BOND
     1    24    23    1
     2    24    25    1
     3    25    26    1
     4    26    27    1
     5    27    28    1
     6    28    29    1
     7    29    30    1
     8    30    31    1
     9    31    33    1
    10    33    34    1
    11    34    35   ar
    12    35    36   ar
    13    36    37   ar
    14    37    38    1
    15    37    39   ar
    16    39    40   ar
    17    31    32    1
    18    24     1    1
    19     1     2   am
    20     2     3    2
    21     2     4   am
    22     4     7    1
    23     7     8   ar
    24     8     9   ar
    25     9    13    1
    26    13    14   ar
    27    14    15   ar
    28    15    16   ar
    29    16    17   ar
    30     9    10   ar
    31    10    11   ar
    32    11    18    1
    33    18    19   ar
    34    19    20   ar
    35    20    21   ar
    36    21    22   ar
    37    11    12   ar
    38    32    27    1
    39    12     7   ar
    40    40    34   ar
    41    17    13   ar
    42    22    18   ar
    43     1     5    1
    44     4     6    1
@<TRIPOS>MOLECULE
*****
 40 44 0 0 0
SMALL
GASTEIGER

@<TRIPOS>ATOM
      1 N           5.7241   -3.4329   20.3724 N.am    1  UNL1       -0.2903
      2 C           5.6273   -3.6953   21.8460 C.2     1  UNL1        0.3044
      3 O           4.3878   -4.3177   22.4171 O.2     1  UNL1       -0.2525
      4 N           6.7700   -3.3354   22.7486 N.am    1  UNL1       -0.2682
      5 H           6.5377   -3.0245   19.9975 H       1  UNL1        0.1509
      6 H           7.5836   -2.9269   22.3738 H       1  UNL1        0.1564
      7 C           6.6732   -3.5978   24.2223 C.ar    1  UNL1        0.0546
      8 C           6.0084   -2.5968   25.1203 C.ar    1  UNL1        0.0339
      9 C           5.9116   -2.8592   26.5939 C.ar    1  UNL1        0.0856
     10 C           6.4795   -4.1225   27.1697 C.ar    1  UNL1        0.0384
     11 C           7.1443   -5.1234   26.2718 C.ar    1  UNL1        0.0856
     12 C           7.2411   -4.8611   24.7981 C.ar    1  UNL1        0.0339
     13 N           5.2468   -1.8583   27.4918 N.ar    1  UNL1       -0.2281
     14 C           5.9439   -0.8758   28.3857 C.ar    1  UNL1        0.1020
     15 C           4.8961   -0.0744   29.0998 C.ar    1  UNL1        0.0431
     16 C           3.5515   -0.5616   28.6474 C.ar    1  UNL1        0.1221
     17 N           3.7682   -1.6641   27.6535 N.ar    1  UNL1       -0.1635
     18 N           7.7122   -6.3867   26.8476 N.ar    1  UNL1       -0.2281
     19 C           7.5094   -7.7712   26.3070 C.ar    1  UNL1        0.1020
     20 C           8.2546   -8.7275   27.1904 C.ar    1  UNL1        0.0431
     21 C           8.9179   -7.9341   28.2769 C.ar    1  UNL1        0.1221
     22 N           8.5827   -6.4874   28.0650 N.ar    1  UNL1       -0.1635
     23 C           4.6215   -5.0682   18.6812 C.3     1  UNL1        0.0214
     24 C           4.5814   -3.7929   19.4698 C.3     1  UNL1        0.0745
     25 C           3.3986   -2.8775   19.3558 C.3     1  UNL1        0.0369
     26 C           3.6014   -1.3919   19.3117 C.3     1  UNL1        0.0738
     27 N           4.0123   -0.6538   20.5513 N.3     1  UNL1       -0.2726
     28 C           5.1748    0.2931   20.5097 C.3     1  UNL1        0.0721
     29 C           5.5856    1.0311   21.7492 C.3     1  UNL1        0.0174
     30 C           4.8339    0.8222   23.0303 C.3     1  UNL1        0.0031
     31 C           3.6714   -0.1247   23.0719 C.3     1  UNL1        0.0204
     32 C           3.2606   -0.8628   21.8324 C.3     1  UNL1        0.0724
     33 C           2.9197   -0.3337   24.3530 C.3     1  UNL1        0.0277
     34 C           2.0663    0.7670   24.9099 C.ar    1  UNL1       -0.0220
     35 C           0.6843    0.9903   24.3709 C.ar    1  UNL1       -0.0020
     36 C          -0.1691    2.0910   24.9278 C.ar    1  UNL1        0.0293
     37 C           0.3593    2.9684   26.0237 C.ar    1  UNL1        0.1401
     38 F          -0.4942    4.0691   26.5805 F       1  UNL1       -0.2042
     39 C           1.7412    2.7451   26.5626 C.ar    1  UNL1        0.0293
     40 C           2.5947    1.6444   26.0058 C.ar    1  UNL1       -0.0020
@<TRIPOS>BOND
     1    24    23    1
     2    24    25    1
     3    25    26    1
     4    26    27    1
     5    27    28    1
     6    28    29    1
     7    29    30    1
     8    30    31    1
     9    31    33    1
    10    33    34    1
    11    34    35   ar
    12    35    36   ar
    13    36    37   ar
    14    37    38    1
    15    37    39   ar
    16    39    40   ar
    17    31    32    1
    18    24     1    1
    19     1     2   am
    20     2     3    2
    21     2     4   am
    22     4     7    1
    23     7     8   ar
    24     8     9   ar
    25     9    13    1
    26    13    14   ar
    27    14    15   ar
    28    15    16   ar
    29    16    17   ar
    30     9    10   ar
    31    10    11   ar
    32    11    18    1
    33    18    19   ar
    34    19    20   ar
    35    20    21   ar
    36    21    22   ar
    37    11    12   ar
    38    32    27    1
    39    12     7   ar
    40    40    34   ar
    41    17    13   ar
    42    22    18   ar
    43     1     5    1
    44     4     6    1
@<TRIPOS>MOLECULE
*****
 40 44 0 0 0
SMALL
GASTEIGER

@<TRIPOS>ATOM
      1 N          -1.6136    2.8505   20.3620 N.am    1  UNL1       -0.2903
      2 C          -0.3514    2.1970   20.8412 C.2     1  UNL1        0.3044
      3 O           0.7835    3.0379   21.3459 O.2     1  UNL1       -0.2525
      4 N          -0.2241    0.7026   20.8157 N.am    1  UNL1       -0.2682
      5 H          -2.3585    2.2986   20.0307 H       1  UNL1        0.1509
      6 H          -0.9690    0.1507   20.4844 H       1  UNL1        0.1564
      7 C           1.0381    0.0491   21.2949 C.ar    1  UNL1        0.0546
      8 C           1.4863    0.2341   22.7145 C.ar    1  UNL1        0.0339
      9 C           2.7485   -0.4194   23.1937 C.ar    1  UNL1        0.0856
     10 C           3.5626   -1.2579   22.2534 C.ar    1  UNL1        0.0384
     11 C           3.1146   -1.4429   20.8339 C.ar    1  UNL1        0.0856
     12 C           1.8523   -0.7894   20.3546 C.ar    1  UNL1        0.0339
     13 N           3.1966   -0.2344   24.6131 N.ar    1  UNL1       -0.2281
     14 C           2.8186    0.9024   25.5160 C.ar    1  UNL1        0.1020
     15 C           3.4897    0.6857   26.8399 C.ar    1  UNL1        0.0431
     16 C           4.2824   -0.5850   26.7553 C.ar    1  UNL1        0.1221
     17 N           4.1012   -1.1536   25.3791 N.ar    1  UNL1       -0.1635
     18 N           3.9287   -2.2814   19.8937 N.ar    1  UNL1       -0.2281
     19 C           3.8118   -3.7655   19.7093 C.ar    1  UNL1        0.1020
     20 C           4.8136   -4.1843   18.6744 C.ar    1  UNL1        0.0431
     21 C           5.5496   -2.9591   18.2191 C.ar    1  UNL1        0.1221
     22 N           5.0027   -1.7831   18.9726 N.ar    1  UNL1       -0.1635
     23 C          -1.1070    5.1701   19.3072 C.3     1  UNL1        0.0214
     24 C          -1.7409    4.3448   20.3875 C.3     1  UNL1        0.0745
     25 C          -2.5022    5.0140   21.4934 C.3     1  UNL1        0.0369
     26 C          -3.5833    4.2681   22.2178 C.3     1  UNL1        0.0738
     27 N          -3.5909    4.2272   23.7173 N.3     1  UNL1       -0.2726
     28 C          -4.8896    4.1033   24.4575 C.3     1  UNL1        0.0721
     29 C          -4.8972    4.0624   25.9569 C.3     1  UNL1        0.0174
     30 C          -3.6061    4.1454   26.7160 C.3     1  UNL1        0.0031
     31 C          -2.3074    4.2693   25.9758 C.3     1  UNL1        0.0204
     32 C          -2.2998    4.3102   24.4764 C.3     1  UNL1        0.0724
     33 C          -1.0164    4.3523   26.7349 C.3     1  UNL1        0.0277
     34 C          -0.4899    3.1454   27.4534 C.ar    1  UNL1       -0.0220
     35 C          -0.9094    1.7721   27.0198 C.ar    1  UNL1       -0.0020
     36 C          -0.3829    0.5652   27.7383 C.ar    1  UNL1        0.0293
     37 C           0.5631    0.7317   28.8904 C.ar    1  UNL1        0.1401
     38 F           1.0896   -0.4753   29.6089 F       1  UNL1       -0.2042
     39 C           0.9827    2.1049   29.3239 C.ar    1  UNL1        0.0293
     40 C           0.4562    3.3119   28.6054 C.ar    1  UNL1       -0.0020
@<TRIPOS>BOND
     1    24    23    1
     2    24    25    1
     3    25    26    1
     4    26    27    1
     5    27    28    1
     6    28    29    1
     7    29    30    1
     8    30    31    1
     9    31    33    1
    10    33    34    1
    11    34    35   ar
    12    35    36   ar
    13    36    37   ar
    14    37    38    1
    15    37    39   ar
    16    39    40   ar
    17    31    32    1
    18    24     1    1
    19     1     2   am
    20     2     3    2
    21     2     4   am
    22     4     7    1
    23     7     8   ar
    24     8     9   ar
    25     9    13    1
    26    13    14   ar
    27    14    15   ar
    28    15    16   ar
    29    16    17   ar
    30     9    10   ar
    31    10    11   ar
    32    11    18    1
    33    18    19   ar
    34    19    20   ar
    35    20    21   ar
    36    21    22   ar
    37    11    12   ar
    38    32    27    1
    39    12     7   ar
    40    40    34   ar
    41    17    13   ar
    42    22    18   ar
    43     1     5    1
    44     4     6    1
@<TRIPOS>MOLECULE
*****
 40 44 0 0 0
SMALL
GASTEIGER

@<TRIPOS>ATOM
      1 N           5.5200   -2.5698   20.7850 N.am    1  UNL1       -0.2903
      2 C           5.2725   -2.7218   22.2566 C.2     1  UNL1        0.3044
      3 O           4.1264   -3.5591   22.7418 O.2     1  UNL1       -0.2525
      4 N           6.1711   -2.0365   23.2430 N.am    1  UNL1       -0.2682
      5 H           6.2722   -2.0203   20.4665 H       1  UNL1        0.1509
      6 H           6.9233   -1.4869   22.9245 H       1  UNL1        0.1564
      7 C           5.9236   -2.1885   24.7145 C.ar    1  UNL1        0.0546
      8 C           4.9439   -1.2881   25.4073 C.ar    1  UNL1        0.0339
      9 C           4.6965   -1.4401   26.8789 C.ar    1  UNL1        0.0856
     10 C           5.4286   -2.4924   27.6578 C.ar    1  UNL1        0.0384
     11 C           6.4082   -3.3926   26.9652 C.ar    1  UNL1        0.0856
     12 C           6.6557   -3.2407   25.4935 C.ar    1  UNL1        0.0339
     13 N           3.7169   -0.5398   27.5715 N.ar    1  UNL1       -0.2281
     14 C           3.7715    0.9588   27.6104 C.ar    1  UNL1        0.1020
     15 C           2.5990    1.4448   28.4098 C.ar    1  UNL1        0.0431
     16 C           1.8197    0.2466   28.8651 C.ar    1  UNL1        0.1221
     17 N           2.5106   -0.9799   28.3470 N.ar    1  UNL1       -0.1635
     18 N           7.1404   -4.4449   27.7441 N.ar    1  UNL1       -0.2281
     19 C           8.3651   -5.1839   27.2925 C.ar    1  UNL1        0.1020
     20 C           8.7580   -6.1386   28.3807 C.ar    1  UNL1        0.0431
     21 C           7.7761   -5.9897   29.5049 C.ar    1  UNL1        0.1221
     22 N           6.7764   -4.9429   29.1114 N.ar    1  UNL1       -0.1635
     23 C           5.0661   -4.5246   19.1350 C.3     1  UNL1        0.0214
     24 C           4.6214   -3.2551   19.7987 C.3     1  UNL1        0.0745
     25 C           3.2780   -2.6709   19.4760 C.3     1  UNL1        0.0369
     26 C           3.1355   -1.1938   19.2573 C.3     1  UNL1        0.0738
     27 N           2.2652   -0.3811   20.1696 N.3     1  UNL1       -0.2726
     28 C           1.0745    0.3462   19.6190 C.3     1  UNL1        0.0721
     29 C           0.2043    1.1589   20.5312 C.3     1  UNL1        0.0174
     30 C           0.5248    1.2443   21.9941 C.3     1  UNL1        0.0031
     31 C           1.7155    0.5170   22.5447 C.3     1  UNL1        0.0204
     32 C           2.5857   -0.2957   21.6325 C.3     1  UNL1        0.0724
     33 C           2.0359    0.6023   24.0076 C.3     1  UNL1        0.0277
     34 C           1.2741    1.5477   24.8884 C.ar    1  UNL1       -0.0220
     35 C           1.7495    2.9599   25.0611 C.ar    1  UNL1       -0.0020
     36 C           0.9876    3.9053   25.9419 C.ar    1  UNL1        0.0293
     37 C          -0.2496    3.4385   26.6499 C.ar    1  UNL1        0.1401
     38 F          -1.0115    4.3840   27.5307 F       1  UNL1       -0.2042
     39 C          -0.7251    2.0264   26.4772 C.ar    1  UNL1        0.0293
     40 C           0.0368    1.0810   25.5964 C.ar    1  UNL1       -0.0020
@<TRIPOS>BOND
     1    24    23    1
     2    24    25    1
     3    25    26    1
     4    26    27    1
     5    27    28    1
     6    28    29    1
     7    29    30    1
     8    30    31    1
     9    31    33    1
    10    33    34    1
    11    34    35   ar
    12    35    36   ar
    13    36    37   ar
    14    37    38    1
    15    37    39   ar
    16    39    40   ar
    17    31    32    1
    18    24     1    1
    19     1     2   am
    20     2     3    2
    21     2     4   am
    22     4     7    1
    23     7     8   ar
    24     8     9   ar
    25     9    13    1
    26    13    14   ar
    27    14    15   ar
    28    15    16   ar
    29    16    17   ar
    30     9    10   ar
    31    10    11   ar
    32    11    18    1
    33    18    19   ar
    34    19    20   ar
    35    20    21   ar
    36    21    22   ar
    37    11    12   ar
    38    32    27    1
    39    12     7   ar
    40    40    34   ar
    41    17    13   ar
    42    22    18   ar
    43     1     5    1
    44     4     6    1
