@<TRIPOS>MOLECULE
*****
 37 41 0 0 0
SMALL
GASTEIGER

@<TRIPOS>ATOM
      1 N           5.4008   -0.9007   27.8496 N.ar    1  UNL1       -0.2508
      2 N           5.1734   -0.6625   26.3862 N.ar    1  UNL1       -0.1678
      3 C           3.7358   -0.2783   26.1971 C.ar    1  UNL1        0.1194
      4 C           3.0748   -0.2789   27.5436 C.ar    1  UNL1        0.0411
      5 C           1.6689    0.0211   27.9717 C.ar    1  UNL1        0.0402
      6 C           1.2920   -0.0636   29.4211 C.ar    1  UNL1        0.1444
      7 C           2.3210   -0.4483   30.4424 C.ar    1  UNL1        0.0386
      8 C           3.7270   -0.7483   30.0143 C.ar    1  UNL1        0.0219
      9 C           4.1039   -0.6636   28.5650 C.ar    1  UNL1        0.0796
     10 C           3.0752    0.0492   24.8909 C.ar    1  UNL1        0.0957
     11 C           2.1221    1.2038   24.8010 C.ar    1  UNL1        0.1191
     12 N           1.4615    1.5313   23.4947 N.ar    1  UNL1       -0.2223
     13 C           1.7540    0.7040   22.2782 C.ar    1  UNL1        0.1784
     14 N           1.2574    0.7863   20.8652 N.ar    1  UNL1       -0.2236
     15 C           1.9036   -0.3175   20.0817 C.ar    1  UNL1        0.1066
     16 C           2.7996   -1.0821   21.0105 C.ar    1  UNL1        0.0910
     17 C           2.7072   -0.4508   22.3680 C.ar    1  UNL1        0.0988
     18 N           3.3678   -0.7782   23.6743 N.ar    1  UNL1       -0.3481
     19 H           3.9934   -1.5361   23.7332 H       1  UNL1        0.1661
     20 C           3.6405   -2.2696   20.6457 C.2     1  UNL1        0.2488
     21 O           4.7330   -2.7262   21.5665 O.2     1  UNL1       -0.2700
     22 N           3.3888   -3.0003   19.3602 N.am    1  UNL1       -0.3039
     23 H           2.6717   -2.7006   18.7558 H       1  UNL1        0.1496
     24 C           4.2296   -4.1877   18.9955 C.3     1  UNL1        0.0572
     25 C           5.2148   -3.2820   18.3181 C.3     1  UNL1        0.0196
     26 C           3.2444   -5.0935   19.6729 C.3     1  UNL1        0.0196
     27 C           5.0705   -5.3751   18.6307 C.3     1  UNL1        0.0196
     28 C           6.6976   -1.3049   28.4860 C.3     1  UNL1        0.1302
     29 C           7.0264   -5.7324   31.0392 C.3     1  UNL1        0.0896
     30 N           6.9301   -4.4356   30.2913 N.3     1  UNL1       -0.2713
     31 C           6.6559   -3.0104   30.6705 C.3     1  UNL1        0.0755
     32 C           6.7939   -2.6017   29.2339 C.3     1  UNL1        0.0563
     33 C           7.0680   -4.0269   28.8547 C.3     1  UNL1        0.0755
     34 O          -0.1141    0.2364   29.8492 O.3     1  UNL1       -0.4236
     35 C          -1.2382    0.1264   28.8621 C.3     1  UNL1        0.5087
     36 F          -1.9093   -1.1955   28.6339 F       1  UNL1       -0.1550
     37 F          -1.6912    1.3385   28.1033 F       1  UNL1       -0.1550
@<TRIPOS>BOND
     1    29    30    1
     2    30    31    1
     3    31    32    1
     4    32    28    1
     5    28     1    1
     6     1     2   ar
     7     2     3   ar
     8     3    10    1
     9    10    11   ar
    10    11    12   ar
    11    12    13   ar
    12    13    14   ar
    13    14    15   ar
    14    15    16   ar
    15    16    20    1
    16    20    21    2
    17    20    22   am
    18    22    24    1
    19    24    25    1
    20    24    26    1
    21    24    27    1
    22    16    17   ar
    23    17    18   ar
    24     3     4   ar
    25     4     5   ar
    26     5     6   ar
    27     6    34    1
    28    34    35    1
    29    35    36    1
    30    35    37    1
    31     6     7   ar
    32     7     8   ar
    33     8     9   ar
    34    32    33    1
    35    33    30    1
    36     9     1   ar
    37    18    10   ar
    38     9     4   ar
    39    17    13    1
    40    22    23    1
    41    18    19    1
@<TRIPOS>MOLECULE
*****
 37 41 0 0 0
SMALL
GASTEIGER

@<TRIPOS>ATOM
      1 N           6.2777   -3.1186   25.4539 N.ar    1  UNL1       -0.2508
      2 N           5.4017   -2.1250   26.1578 N.ar    1  UNL1       -0.1678
      3 C           4.4128   -1.5927   25.1635 C.ar    1  UNL1        0.1194
      4 C           4.6776   -2.2571   23.8451 C.ar    1  UNL1        0.0411
      5 C           4.0181   -2.1253   22.5043 C.ar    1  UNL1        0.0402
      6 C           4.5112   -2.9366   21.3430 C.ar    1  UNL1        0.1444
      7 C           5.6638   -3.8796   21.5224 C.ar    1  UNL1        0.0386
      8 C           6.3233   -4.0115   22.8632 C.ar    1  UNL1        0.0219
      9 C           5.8302   -3.2002   24.0245 C.ar    1  UNL1        0.0796
     10 C           3.3464   -0.5745   25.4393 C.ar    1  UNL1        0.0957
     11 C           3.0849   -0.1244   26.8459 C.ar    1  UNL1        0.1191
     12 N           2.0184    0.8938   27.1217 N.ar    1  UNL1       -0.2223
     13 C           1.2133    1.4618   25.9906 C.ar    1  UNL1        0.1784
     14 N           0.1049    2.4718   25.9556 N.ar    1  UNL1       -0.2236
     15 C          -0.3187    2.6459   24.5273 C.ar    1  UNL1        0.1066
     16 C           0.5280    1.7435   23.6795 C.ar    1  UNL1        0.0910
     17 C           1.4748    1.0117   24.5839 C.ar    1  UNL1        0.0988
     18 N           2.5413   -0.0065   24.3081 N.ar    1  UNL1       -0.3481
     19 H           2.7129   -0.3019   23.3848 H       1  UNL1        0.1661
     20 C           0.4427    1.5984   22.1889 C.2     1  UNL1        0.2488
     21 O          -0.7883    2.0501   21.4606 O.2     1  UNL1       -0.2700
     22 N           1.5885    1.0016   21.4267 N.am    1  UNL1       -0.3039
     23 H           2.3965    0.7051   21.9047 H       1  UNL1        0.1496
     24 C           1.5032    0.8565   19.9362 C.3     1  UNL1        0.0572
     25 C           2.0769    2.2324   19.7695 C.3     1  UNL1        0.0196
     26 C           0.9295   -0.5194   20.1029 C.3     1  UNL1        0.0196
     27 C           1.4180    0.7115   18.4456 C.3     1  UNL1        0.0196
     28 C           7.4035   -3.8943   26.0709 C.3     1  UNL1        0.1302
     29 C           6.9635   -5.6834   30.8494 C.3     1  UNL1        0.0896
     30 N           7.0924   -5.1594   29.4498 N.3     1  UNL1       -0.2713
     31 C           8.0823   -4.2935   28.7284 C.3     1  UNL1        0.0755
     32 C           7.2747   -4.4183   27.4705 C.3     1  UNL1        0.0563
     33 C           6.2848   -5.2842   28.1919 C.3     1  UNL1        0.0755
     34 O           3.8517   -2.8048   20.0021 O.3     1  UNL1       -0.4236
     35 C           3.7499   -3.9959   19.0961 C.3     1  UNL1        0.5087
     36 F           4.9335   -4.4190   18.2776 F       1  UNL1       -0.1550
     37 F           2.4644   -4.7639   19.0086 F       1  UNL1       -0.1550
@<TRIPOS>BOND
     1    29    30    1
     2    30    31    1
     3    31    32    1
     4    32    28    1
     5    28     1    1
     6     1     2   ar
     7     2     3   ar
     8     3    10    1
     9    10    11   ar
    10    11    12   ar
    11    12    13   ar
    12    13    14   ar
    13    14    15   ar
    14    15    16   ar
    15    16    20    1
    16    20    21    2
    17    20    22   am
    18    22    24    1
    19    24    25    1
    20    24    26    1
    21    24    27    1
    22    16    17   ar
    23    17    18   ar
    24     3     4   ar
    25     4     5   ar
    26     5     6   ar
    27     6    34    1
    28    34    35    1
    29    35    36    1
    30    35    37    1
    31     6     7   ar
    32     7     8   ar
    33     8     9   ar
    34    32    33    1
    35    33    30    1
    36     9     1   ar
    37    18    10   ar
    38     9     4   ar
    39    17    13    1
    40    22    23    1
    41    18    19    1
@<TRIPOS>MOLECULE
*****
 37 41 0 0 0
SMALL
GASTEIGER

@<TRIPOS>ATOM
      1 N           3.4533   -0.5332   24.8954 N.ar    1  UNL1       -0.2508
      2 N           4.4696   -1.4781   25.4651 N.ar    1  UNL1       -0.1678
      3 C           4.9483   -2.3675   24.3562 C.ar    1  UNL1        0.1194
      4 C           4.2279   -1.9724   23.1012 C.ar    1  UNL1        0.0411
      5 C           4.2939   -2.4985   21.6980 C.ar    1  UNL1        0.0402
      6 C           3.4360   -1.8908   20.6282 C.ar    1  UNL1        0.1444
      7 C           2.5121   -0.7571   20.9615 C.ar    1  UNL1        0.0386
      8 C           2.4460   -0.2311   22.3646 C.ar    1  UNL1        0.0219
      9 C           3.3040   -0.8387   23.4345 C.ar    1  UNL1        0.0796
     10 C           5.9683   -3.4603   24.4804 C.ar    1  UNL1        0.0957
     11 C           6.3837   -4.2399   23.2682 C.ar    1  UNL1        0.1191
     12 N           7.4037   -5.3327   23.3925 N.ar    1  UNL1       -0.2223
     13 C           8.0083   -5.6459   24.7290 C.ar    1  UNL1        0.1784
     14 N           9.0287   -6.6587   25.1565 N.ar    1  UNL1       -0.2236
     15 C           9.2441   -6.5051   26.6330 C.ar    1  UNL1        0.1066
     16 C           8.3567   -5.3973   27.1180 C.ar    1  UNL1        0.0910
     17 C           7.5930   -4.8663   25.9413 C.ar    1  UNL1        0.0988
     18 N           6.5730   -3.7735   25.8170 N.ar    1  UNL1       -0.3481
     19 H           6.3003   -3.2618   26.6127 H       1  UNL1        0.1661
     20 C           8.2515   -4.9067   28.5316 C.2     1  UNL1        0.2488
     21 O           9.4772   -4.4304   29.2533 O.2     1  UNL1       -0.2700
     22 N           6.9207   -4.8923   29.2235 N.am    1  UNL1       -0.3039
     23 H           6.1162   -5.2049   28.7498 H       1  UNL1        0.1496
     24 C           6.8156   -4.4017   30.6370 C.3     1  UNL1        0.0572
     25 C           7.0806   -5.7902   31.1387 C.3     1  UNL1        0.0196
     26 C           6.5506   -3.0130   30.1354 C.3     1  UNL1        0.0196
     27 C           6.7105   -3.9111   32.0507 C.3     1  UNL1        0.0196
     28 C           2.7159    0.5304   25.6536 C.3     1  UNL1        0.1302
     29 C           2.5761    0.3968   30.7713 C.3     1  UNL1        0.0896
     30 N           2.6170    0.4360   29.2723 N.3     1  UNL1       -0.2713
     31 C           2.2413   -0.5162   28.1758 C.3     1  UNL1        0.0755
     32 C           2.6749    0.4913   27.1526 C.3     1  UNL1        0.0563
     33 C           3.0506    1.4434   28.2491 C.3     1  UNL1        0.0755
     34 O           3.5020   -2.4169   19.2249 O.3     1  UNL1       -0.4236
     35 C           3.7932   -3.8679   18.9809 C.3     1  UNL1        0.5087
     36 F           2.7856   -4.9102   19.3658 F       1  UNL1       -0.1550
     37 F           5.0922   -4.2767   18.3519 F       1  UNL1       -0.1550
@<TRIPOS>BOND
     1    29    30    1
     2    30    31    1
     3    31    32    1
     4    32    28    1
     5    28     1    1
     6     1     2   ar
     7     2     3   ar
     8     3    10    1
     9    10    11   ar
    10    11    12   ar
    11    12    13   ar
    12    13    14   ar
    13    14    15   ar
    14    15    16   ar
    15    16    20    1
    16    20    21    2
    17    20    22   am
    18    22    24    1
    19    24    25    1
    20    24    26    1
    21    24    27    1
    22    16    17   ar
    23    17    18   ar
    24     3     4   ar
    25     4     5   ar
    26     5     6   ar
    27     6    34    1
    28    34    35    1
    29    35    36    1
    30    35    37    1
    31     6     7   ar
    32     7     8   ar
    33     8     9   ar
    34    32    33    1
    35    33    30    1
    36     9     1   ar
    37    18    10   ar
    38     9     4   ar
    39    17    13    1
    40    22    23    1
    41    18    19    1
@<TRIPOS>MOLECULE
*****
 37 41 0 0 0
SMALL
GASTEIGER

@<TRIPOS>ATOM
      1 N           2.7377    0.1349   23.9019 N.ar    1  UNL1       -0.2508
      2 N           1.8457    1.1883   23.3148 N.ar    1  UNL1       -0.1678
      3 C           1.6673    0.8846   21.8568 C.ar    1  UNL1        0.1194
      4 C           2.4491   -0.3564   21.5426 C.ar    1  UNL1        0.0411
      5 C           2.6441   -1.1243   20.2690 C.ar    1  UNL1        0.0402
      6 C           3.5006   -2.3556   20.2593 C.ar    1  UNL1        0.1444
      7 C           4.1622   -2.8190   21.5233 C.ar    1  UNL1        0.0386
      8 C           3.9672   -2.0511   22.7969 C.ar    1  UNL1        0.0219
      9 C           3.1107   -0.8197   22.8066 C.ar    1  UNL1        0.0796
     10 C           0.8505    1.6820   20.8836 C.ar    1  UNL1        0.0957
     11 C           1.4025    2.0017   19.5261 C.ar    1  UNL1        0.1191
     12 N           0.5857    2.7991   18.5530 N.ar    1  UNL1       -0.2223
     13 C          -0.7832    3.2768   18.9374 C.ar    1  UNL1        0.1784
     14 N          -1.8128    4.0758   18.1946 N.ar    1  UNL1       -0.2236
     15 C          -3.0012    4.2499   19.0931 C.ar    1  UNL1        0.1066
     16 C          -2.7061    3.5586   20.3912 C.ar    1  UNL1        0.0910
     17 C          -1.3353    2.9572   20.2949 C.ar    1  UNL1        0.0988
     18 N          -0.5185    2.1598   21.2681 N.ar    1  UNL1       -0.3481
     19 H          -0.8809    1.9500   22.1591 H       1  UNL1        0.1661
     20 C          -3.6212    3.4821   21.5773 C.2     1  UNL1        0.2488
     21 O          -4.7147    2.4560   21.6160 O.2     1  UNL1       -0.2700
     22 N          -3.4428    4.4316   22.7247 N.am    1  UNL1       -0.3039
     23 H          -2.7251    5.1051   22.6993 H       1  UNL1        0.1496
     24 C          -4.3579    4.3551   23.9107 C.3     1  UNL1        0.0572
     25 C          -3.3777    3.4600   24.6092 C.3     1  UNL1        0.0196
     26 C          -5.3382    5.2502   23.2122 C.3     1  UNL1        0.0196
     27 C          -5.2730    4.2785   25.0968 C.3     1  UNL1        0.0196
     28 C           3.1793    0.0508   25.3329 C.3     1  UNL1        0.1302
     29 C           0.9279    2.9754   28.8835 C.3     1  UNL1        0.0896
     30 N           1.5873    2.1188   27.8435 N.3     1  UNL1       -0.2713
     31 C           1.1021    1.1762   26.7823 C.3     1  UNL1        0.0755
     32 C           2.5199    0.9075   26.3729 C.3     1  UNL1        0.0563
     33 C           3.0051    1.8501   27.4341 C.3     1  UNL1        0.0755
     34 O           3.6956   -3.1236   18.9856 O.3     1  UNL1       -0.4236
     35 C           3.8099   -4.6188   19.0214 C.3     1  UNL1        0.5087
     36 F           2.8496   -5.4249   19.8449 F       1  UNL1       -0.1550
     37 F           4.8845   -5.3080   18.2337 F       1  UNL1       -0.1550
@<TRIPOS>BOND
     1    29    30    1
     2    30    31    1
     3    31    32    1
     4    32    28    1
     5    28     1    1
     6     1     2   ar
     7     2     3   ar
     8     3    10    1
     9    10    11   ar
    10    11    12   ar
    11    12    13   ar
    12    13    14   ar
    13    14    15   ar
    14    15    16   ar
    15    16    20    1
    16    20    21    2
    17    20    22   am
    18    22    24    1
    19    24    25    1
    20    24    26    1
    21    24    27    1
    22    16    17   ar
    23    17    18   ar
    24     3     4   ar
    25     4     5   ar
    26     5     6   ar
    27     6    34    1
    28    34    35    1
    29    35    36    1
    30    35    37    1
    31     6     7   ar
    32     7     8   ar
    33     8     9   ar
    34    32    33    1
    35    33    30    1
    36     9     1   ar
    37    18    10   ar
    38     9     4   ar
    39    17    13    1
    40    22    23    1
    41    18    19    1
@<TRIPOS>MOLECULE
*****
 37 41 0 0 0
SMALL
GASTEIGER

@<TRIPOS>ATOM
      1 N           2.4561   -1.2243   20.1881 N.ar    1  UNL1       -0.2508
      2 N           1.5883   -0.3618   19.3203 N.ar    1  UNL1       -0.1678
      3 C           1.0641    0.7637   20.1621 C.ar    1  UNL1        0.1194
      4 C           1.6079    0.5967   21.5501 C.ar    1  UNL1        0.0411
      5 C           1.4309    1.4047   22.8013 C.ar    1  UNL1        0.0402
      6 C           2.1141    0.9841   24.0687 C.ar    1  UNL1        0.1444
      7 C           2.9744   -0.2446   24.0847 C.ar    1  UNL1        0.0386
      8 C           3.1515   -1.0526   22.8335 C.ar    1  UNL1        0.0219
      9 C           2.4682   -0.6319   21.5661 C.ar    1  UNL1        0.0796
     10 C           0.1556    1.8631   19.6975 C.ar    1  UNL1        0.0957
     11 C           0.3824    2.5100   18.3634 C.ar    1  UNL1        0.1191
     12 N          -0.5261    3.6094   17.8988 N.ar    1  UNL1       -0.2223
     13 C          -1.6615    4.0620   18.7683 C.ar    1  UNL1        0.1784
     14 N          -2.7137    5.1140   18.5784 N.ar    1  UNL1       -0.2236
     15 C          -3.5908    5.1174   19.7952 C.ar    1  UNL1        0.1066
     16 C          -3.0807    4.0673   20.7372 C.ar    1  UNL1        0.0910
     17 C          -1.8883    3.4151   20.1025 C.ar    1  UNL1        0.0988
     18 N          -0.9798    2.3156   20.5671 N.ar    1  UNL1       -0.3481
     19 H          -1.1287    1.8911   21.4428 H       1  UNL1        0.1661
     20 C          -3.6611    3.7290   22.0784 C.2     1  UNL1        0.2488
     21 O          -4.5897    2.5595   22.2203 O.2     1  UNL1       -0.2700
     22 N          -3.3130    4.5600   23.2775 N.am    1  UNL1       -0.3039
     23 H          -2.7035    5.3276   23.1844 H       1  UNL1        0.1496
     24 C          -3.8934    4.2217   24.6186 C.3     1  UNL1        0.0572
     25 C          -2.6953    3.3719   24.9227 C.3     1  UNL1        0.0196
     26 C          -5.0915    5.0715   24.3145 C.3     1  UNL1        0.0196
     27 C          -4.4738    3.8832   25.9598 C.3     1  UNL1        0.0196
     28 C           3.1840   -2.4620   19.7541 C.3     1  UNL1        0.1302
     29 C           8.2363   -2.3050   18.9301 C.3     1  UNL1        0.0896
     30 N           6.7564   -2.3510   19.1714 N.3     1  UNL1       -0.2713
     31 C           5.5678   -2.8212   18.3864 C.3     1  UNL1        0.0755
     32 C           4.6638   -2.4160   19.5127 C.3     1  UNL1        0.0563
     33 C           5.8524   -1.9458   20.2977 C.3     1  UNL1        0.0755
     34 O           1.9371    1.7921   25.3200 O.3     1  UNL1       -0.4236
     35 C           0.5738    1.9466   25.9264 C.3     1  UNL1        0.5087
     36 F           0.2239    3.1977   26.6763 F       1  UNL1       -0.1550
     37 F          -0.4395    0.8500   25.7829 F       1  UNL1       -0.1550
@<TRIPOS>BOND
     1    29    30    1
     2    30    31    1
     3    31    32    1
     4    32    28    1
     5    28     1    1
     6     1     2   ar
     7     2     3   ar
     8     3    10    1
     9    10    11   ar
    10    11    12   ar
    11    12    13   ar
    12    13    14   ar
    13    14    15   ar
    14    15    16   ar
    15    16    20    1
    16    20    21    2
    17    20    22   am
    18    22    24    1
    19    24    25    1
    20    24    26    1
    21    24    27    1
    22    16    17   ar
    23    17    18   ar
    24     3     4   ar
    25     4     5   ar
    26     5     6   ar
    27     6    34    1
    28    34    35    1
    29    35    36    1
    30    35    37    1
    31     6     7   ar
    32     7     8   ar
    33     8     9   ar
    34    32    33    1
    35    33    30    1
    36     9     1   ar
    37    18    10   ar
    38     9     4   ar
    39    17    13    1
    40    22    23    1
    41    18    19    1
@<TRIPOS>MOLECULE
*****
 37 41 0 0 0
SMALL
GASTEIGER

@<TRIPOS>ATOM
      1 N           3.9342    1.5541   33.1128 N.ar    1  UNL1       -0.2508
      2 N           4.9455    0.4463   33.1142 N.ar    1  UNL1       -0.1678
      3 C           4.5702   -0.5254   32.0350 C.ar    1  UNL1        0.1194
      4 C           3.3268   -0.0183   31.3665 C.ar    1  UNL1        0.0411
      5 C           2.5018   -0.5607   30.2374 C.ar    1  UNL1        0.0402
      6 C           1.2836    0.1821   29.7743 C.ar    1  UNL1        0.1444
      7 C           0.8906    1.4673   30.4404 C.ar    1  UNL1        0.0386
      8 C           1.7156    2.0097   31.5696 C.ar    1  UNL1        0.0219
      9 C           2.9337    1.2669   32.0326 C.ar    1  UNL1        0.0796
     10 C           5.3085   -1.7835   31.6855 C.ar    1  UNL1        0.0957
     11 C           5.5760   -2.8142   32.7418 C.ar    1  UNL1        0.1191
     12 N           6.3144   -4.0723   32.3924 N.ar    1  UNL1       -0.2223
     13 C           6.7853   -4.2996   30.9865 C.ar    1  UNL1        0.1784
     14 N           7.5319   -5.4337   30.3490 N.ar    1  UNL1       -0.2236
     15 C           7.7258   -5.1039   28.8987 C.ar    1  UNL1        0.1066
     16 C           7.0991   -3.7660   28.6397 C.ar    1  UNL1        0.0910
     17 C           6.5178   -3.2689   29.9300 C.ar    1  UNL1        0.0988
     18 N           5.7794   -2.0108   30.2795 N.ar    1  UNL1       -0.3481
     19 H           5.6038   -1.3343   29.5861 H       1  UNL1        0.1661
     20 C           7.0604   -3.0507   27.3217 C.2     1  UNL1        0.2488
     21 O           8.1703   -2.1153   26.9432 O.2     1  UNL1       -0.2700
     22 N           5.9119   -3.2708   26.3824 N.am    1  UNL1       -0.3039
     23 H           5.1835   -3.8847   26.6308 H       1  UNL1        0.1496
     24 C           5.8733   -2.5555   25.0645 C.3     1  UNL1        0.0572
     25 C           6.5665   -3.7160   24.4143 C.3     1  UNL1        0.0196
     26 C           5.1801   -1.3950   25.7146 C.3     1  UNL1        0.0196
     27 C           5.8347   -1.8403   23.7465 C.3     1  UNL1        0.0196
     28 C           3.9248    2.7406   34.0304 C.3     1  UNL1        0.1302
     29 C           1.6818    2.4090   38.6225 C.3     1  UNL1        0.0896
     30 N           2.3387    2.5061   37.2774 N.3     1  UNL1       -0.2713
     31 C           3.3293    1.6739   36.5183 C.3     1  UNL1        0.0755
     32 C           3.2678    2.6435   35.3754 C.3     1  UNL1        0.0563
     33 C           2.2773    3.4757   36.1346 C.3     1  UNL1        0.0755
     34 O           0.4585   -0.3604   28.6451 O.3     1  UNL1       -0.4236
     35 C          -0.9426    0.1326   28.4359 C.3     1  UNL1        0.5087
     36 F          -1.1984    1.3068   27.5382 F       1  UNL1       -0.1550
     37 F          -2.0880   -0.5488   29.1243 F       1  UNL1       -0.1550
@<TRIPOS>BOND
     1    29    30    1
     2    30    31    1
     3    31    32    1
     4    32    28    1
     5    28     1    1
     6     1     2   ar
     7     2     3   ar
     8     3    10    1
     9    10    11   ar
    10    11    12   ar
    11    12    13   ar
    12    13    14   ar
    13    14    15   ar
    14    15    16   ar
    15    16    20    1
    16    20    21    2
    17    20    22   am
    18    22    24    1
    19    24    25    1
    20    24    26    1
    21    24    27    1
    22    16    17   ar
    23    17    18   ar
    24     3     4   ar
    25     4     5   ar
    26     5     6   ar
    27     6    34    1
    28    34    35    1
    29    35    36    1
    30    35    37    1
    31     6     7   ar
    32     7     8   ar
    33     8     9   ar
    34    32    33    1
    35    33    30    1
    36     9     1   ar
    37    18    10   ar
    38     9     4   ar
    39    17    13    1
    40    22    23    1
    41    18    19    1
@<TRIPOS>MOLECULE
*****
 37 41 0 0 0
SMALL
GASTEIGER

@<TRIPOS>ATOM
      1 N           5.8690   -2.4591   25.2582 N.ar    1  UNL1       -0.2508
      2 N           4.8693   -1.4899   25.8160 N.ar    1  UNL1       -0.1678
      3 C           3.9047   -1.1381   24.7224 C.ar    1  UNL1        0.1194
      4 C           4.3083   -1.8899   23.4888 C.ar    1  UNL1        0.0411
      5 C           3.7272   -1.9365   22.1067 C.ar    1  UNL1        0.0402
      6 C           4.3601   -2.7996   21.0558 C.ar    1  UNL1        0.1444
      7 C           5.5741   -3.6160   21.3869 C.ar    1  UNL1        0.0386
      8 C           6.1552   -3.5694   22.7689 C.ar    1  UNL1        0.0219
      9 C           5.5223   -2.7063   23.8199 C.ar    1  UNL1        0.0796
     10 C           2.7409   -0.1994   24.8416 C.ar    1  UNL1        0.0957
     11 C           2.1036    0.3658   23.6070 C.ar    1  UNL1        0.1191
     12 N           0.9398    1.3045   23.7262 N.ar    1  UNL1       -0.2223
     13 C           0.4131    1.6782   25.0800 C.ar    1  UNL1        0.1784
     14 N          -0.7120    2.5734   25.5074 N.ar    1  UNL1       -0.2236
     15 C          -0.7701    2.5616   27.0062 C.ar    1  UNL1        0.1066
     16 C           0.3191    1.6590   27.5052 C.ar    1  UNL1        0.0910
     17 C           1.0504    1.1130   26.3148 C.ar    1  UNL1        0.0988
     18 N           2.2142    0.1743   26.1956 N.ar    1  UNL1       -0.3481
     19 H           2.6325   -0.1967   27.0060 H       1  UNL1        0.1661
     20 C           0.6235    1.3556   28.9424 C.2     1  UNL1        0.2488
     21 O           0.1383    0.0768   29.5580 O.2     1  UNL1       -0.2700
     22 N           1.4132    2.3311   29.7638 N.am    1  UNL1       -0.3039
     23 H           1.7317    3.1705   29.3597 H       1  UNL1        0.1496
     24 C           1.7176    2.0278   31.2009 C.3     1  UNL1        0.0572
     25 C           0.4613    2.7343   31.6161 C.3     1  UNL1        0.0196
     26 C           2.9739    1.3212   30.7856 C.3     1  UNL1        0.0196
     27 C           2.0219    1.7244   32.6381 C.3     1  UNL1        0.0196
     28 C           7.0144   -3.0733   26.0071 C.3     1  UNL1        0.1302
     29 C           7.3590   -8.1653   26.4329 C.3     1  UNL1        0.0896
     30 N           7.2581   -6.6738   26.3081 N.3     1  UNL1       -0.2713
     31 C           6.6703   -5.5768   27.1455 C.3     1  UNL1        0.0755
     32 C           7.1153   -4.5647   26.1318 C.3     1  UNL1        0.0563
     33 C           7.7031   -5.6617   25.2945 C.3     1  UNL1        0.0755
     34 O           3.7790   -2.8462   19.6736 O.3     1  UNL1       -0.4236
     35 C           3.6208   -4.1618   18.9706 C.3     1  UNL1        0.5087
     36 F           2.2786   -4.8298   18.9225 F       1  UNL1       -0.1550
     37 F           4.8048   -4.8093   18.3157 F       1  UNL1       -0.1550
@<TRIPOS>BOND
     1    29    30    1
     2    30    31    1
     3    31    32    1
     4    32    28    1
     5    28     1    1
     6     1     2   ar
     7     2     3   ar
     8     3    10    1
     9    10    11   ar
    10    11    12   ar
    11    12    13   ar
    12    13    14   ar
    13    14    15   ar
    14    15    16   ar
    15    16    20    1
    16    20    21    2
    17    20    22   am
    18    22    24    1
    19    24    25    1
    20    24    26    1
    21    24    27    1
    22    16    17   ar
    23    17    18   ar
    24     3     4   ar
    25     4     5   ar
    26     5     6   ar
    27     6    34    1
    28    34    35    1
    29    35    36    1
    30    35    37    1
    31     6     7   ar
    32     7     8   ar
    33     8     9   ar
    34    32    33    1
    35    33    30    1
    36     9     1   ar
    37    18    10   ar
    38     9     4   ar
    39    17    13    1
    40    22    23    1
    41    18    19    1
@<TRIPOS>MOLECULE
*****
 37 41 0 0 0
SMALL
GASTEIGER

@<TRIPOS>ATOM
      1 N           3.0580   -0.7796   22.7932 N.ar    1  UNL1       -0.2508
      2 N           4.0921   -1.8584   22.6638 N.ar    1  UNL1       -0.1678
      3 C           4.6315   -2.1499   24.0327 C.ar    1  UNL1        0.1194
      4 C           3.9308   -1.2514   25.0082 C.ar    1  UNL1        0.0411
      5 C           4.0526   -1.0950   26.4950 C.ar    1  UNL1        0.0402
      6 C           3.2019   -0.0916   27.2157 C.ar    1  UNL1        0.1444
      7 C           2.2293    0.7553   26.4496 C.ar    1  UNL1        0.0386
      8 C           2.1075    0.5989   24.9628 C.ar    1  UNL1        0.0219
      9 C           2.9582   -0.4045   24.2421 C.ar    1  UNL1        0.0796
     10 C           5.6866   -3.1623   24.3674 C.ar    1  UNL1        0.0957
     11 C           6.1722   -4.1152   23.3158 C.ar    1  UNL1        0.1191
     12 N           7.2272   -5.1276   23.6506 N.ar    1  UNL1       -0.2223
     13 C           7.7966   -5.1871   25.0370 C.ar    1  UNL1        0.1784
     14 N           8.8386   -6.0701   25.6572 N.ar    1  UNL1       -0.2236
     15 C           8.9969   -5.6629   27.0921 C.ar    1  UNL1        0.1066
     16 C           8.0528   -4.5282   27.3589 C.ar    1  UNL1        0.0910
     17 C           7.3109   -4.2342   26.0887 C.ar    1  UNL1        0.0988
     18 N           6.2559   -3.2218   25.7540 N.ar    1  UNL1       -0.3481
     19 H           5.9372   -2.5964   26.4443 H       1  UNL1        0.1661
     20 C           7.8807   -3.8132   28.6662 C.2     1  UNL1        0.2488
     21 O           8.9941   -2.9687   29.2114 O.2     1  UNL1       -0.2700
     22 N           6.5953   -3.9426   29.4283 N.am    1  UNL1       -0.3039
     23 H           5.8645   -4.4968   29.0705 H       1  UNL1        0.1496
     24 C           6.4232   -3.2275   30.7356 C.3     1  UNL1        0.0572
     25 C           6.9243   -4.4391   31.4643 C.3     1  UNL1        0.0196
     26 C           5.9221   -2.0159   30.0070 C.3     1  UNL1        0.0196
     27 C           6.2512   -2.5125   32.0430 C.3     1  UNL1        0.0196
     28 C           2.2630   -0.1811   21.6708 C.3     1  UNL1        0.1302
     29 C           3.7935   -0.8183   16.8251 C.3     1  UNL1        0.0896
     30 N           3.3452   -0.6316   18.2444 N.3     1  UNL1       -0.2713
     31 C           2.9595    0.5467   19.0886 C.3     1  UNL1        0.0755
     32 C           2.7113   -0.3677   20.2514 C.3     1  UNL1        0.0563
     33 C           3.0970   -1.5461   19.4072 C.3     1  UNL1        0.0755
     34 O           3.3236    0.0648   28.7026 O.3     1  UNL1       -0.4236
     35 C           2.2898   -0.5375   29.6073 C.3     1  UNL1        0.5087
     36 F           2.6976   -1.1246   30.9259 F       1  UNL1       -0.1550
     37 F           0.8481   -0.5526   29.1932 F       1  UNL1       -0.1550
@<TRIPOS>BOND
     1    29    30    1
     2    30    31    1
     3    31    32    1
     4    32    28    1
     5    28     1    1
     6     1     2   ar
     7     2     3   ar
     8     3    10    1
     9    10    11   ar
    10    11    12   ar
    11    12    13   ar
    12    13    14   ar
    13    14    15   ar
    14    15    16   ar
    15    16    20    1
    16    20    21    2
    17    20    22   am
    18    22    24    1
    19    24    25    1
    20    24    26    1
    21    24    27    1
    22    16    17   ar
    23    17    18   ar
    24     3     4   ar
    25     4     5   ar
    26     5     6   ar
    27     6    34    1
    28    34    35    1
    29    35    36    1
    30    35    37    1
    31     6     7   ar
    32     7     8   ar
    33     8     9   ar
    34    32    33    1
    35    33    30    1
    36     9     1   ar
    37    18    10   ar
    38     9     4   ar
    39    17    13    1
    40    22    23    1
    41    18    19    1
@<TRIPOS>MOLECULE
*****
 37 41 0 0 0
SMALL
GASTEIGER

@<TRIPOS>ATOM
      1 N           4.1282   -0.1884   27.5889 N.ar    1  UNL1       -0.2508
      2 N           4.2828   -0.5848   26.1505 N.ar    1  UNL1       -0.1678
      3 C           5.2290   -1.7472   26.0892 C.ar    1  UNL1        0.1194
      4 C           5.6591   -2.0691   27.4897 C.ar    1  UNL1        0.0411
      5 C           6.5824   -3.1150   28.0407 C.ar    1  UNL1        0.0402
      6 C           6.8253   -3.1975   29.5186 C.ar    1  UNL1        0.1444
      7 C           6.1450   -2.2341   30.4454 C.ar    1  UNL1        0.0386
      8 C           5.2217   -1.1882   29.8944 C.ar    1  UNL1        0.0219
      9 C           4.9788   -1.1057   28.4165 C.ar    1  UNL1        0.0796
     10 C           5.6680   -2.4621   24.8457 C.ar    1  UNL1        0.0957
     11 C           6.5361   -3.6810   24.9482 C.ar    1  UNL1        0.1191
     12 N           6.9750   -4.3959   23.7048 N.ar    1  UNL1       -0.2223
     13 C           6.5459   -3.8919   22.3587 C.ar    1  UNL1        0.1784
     14 N           6.8195   -4.3843   20.9686 N.ar    1  UNL1       -0.2236
     15 C           6.1206   -3.4698   20.0068 C.ar    1  UNL1        0.1066
     16 C           5.4149   -2.4121   20.8027 C.ar    1  UNL1        0.0910
     17 C           5.6778   -2.6729   22.2562 C.ar    1  UNL1        0.0988
     18 N           5.2388   -1.9580   23.4996 N.ar    1  UNL1       -0.3481
     19 H           4.6690   -1.1580   23.4323 H       1  UNL1        0.1661
     20 C           4.5910   -1.2904   20.2431 C.2     1  UNL1        0.2488
     21 O           4.9899    0.1329   20.4982 O.2     1  UNL1       -0.2700
     22 N           3.3681   -1.5920   19.4284 N.am    1  UNL1       -0.3039
     23 H           3.1063   -2.5261   19.2610 H       1  UNL1        0.1496
     24 C           2.5443   -0.4703   18.8689 C.3     1  UNL1        0.0572
     25 C           1.6375   -0.5414   20.0617 C.3     1  UNL1        0.0196
     26 C           3.4511   -0.3992   17.6761 C.3     1  UNL1        0.0196
     27 C           1.7204    0.6514   18.3094 C.3     1  UNL1        0.0196
     28 C           3.2731    0.9291   28.1084 C.3     1  UNL1        0.1302
     29 C          -1.6742    0.1004   29.1414 C.3     1  UNL1        0.0896
     30 N          -0.2251    0.3432   28.8388 N.3     1  UNL1       -0.2713
     31 C           0.5289    1.2818   27.9441 C.3     1  UNL1        0.0755
     32 C           1.8240    0.6864   28.4109 C.3     1  UNL1        0.0563
     33 C           1.0701   -0.2523   29.3057 C.3     1  UNL1        0.0755
     34 O           7.7487   -4.2434   30.0697 O.3     1  UNL1       -0.4236
     35 C           7.2665   -5.6531   30.2432 C.3     1  UNL1        0.5087
     36 F           6.6799   -6.0893   31.5530 F       1  UNL1       -0.1550
     37 F           7.3711   -6.6268   29.1069 F       1  UNL1       -0.1550
@<TRIPOS>BOND
     1    29    30    1
     2    30    31    1
     3    31    32    1
     4    32    28    1
     5    28     1    1
     6     1     2   ar
     7     2     3   ar
     8     3    10    1
     9    10    11   ar
    10    11    12   ar
    11    12    13   ar
    12    13    14   ar
    13    14    15   ar
    14    15    16   ar
    15    16    20    1
    16    20    21    2
    17    20    22   am
    18    22    24    1
    19    24    25    1
    20    24    26    1
    21    24    27    1
    22    16    17   ar
    23    17    18   ar
    24     3     4   ar
    25     4     5   ar
    26     5     6   ar
    27     6    34    1
    28    34    35    1
    29    35    36    1
    30    35    37    1
    31     6     7   ar
    32     7     8   ar
    33     8     9   ar
    34    32    33    1
    35    33    30    1
    36     9     1   ar
    37    18    10   ar
    38     9     4   ar
    39    17    13    1
    40    22    23    1
    41    18    19    1
