@<TRIPOS>MOLECULE
*****
 36 39 0 0 0
SMALL
GASTEIGER

@<TRIPOS>ATOM
      1 C           5.3844   -1.0646   33.1650 C.ar    1  UNL1        0.0359
      2 C           6.8148   -0.7384   32.8528 C.ar    1  UNL1        0.0043
      3 C           7.7357   -1.8099   32.3489 C.ar    1  UNL1        0.0148
      4 C           7.2261   -3.2076   32.1572 C.ar    1  UNL1        0.0516
      5 C           5.7956   -3.5338   32.4695 C.ar    1  UNL1        0.0148
      6 C           4.8748   -2.4623   32.9733 C.ar    1  UNL1        0.0043
      7 C           2.4916    1.6504   33.2681 C.ar    1  UNL1        0.0872
      8 C           2.6218    2.1500   34.6765 C.ar    1  UNL1        0.0508
      9 C           3.6729    1.5780   35.5810 C.ar    1  UNL1        0.1347
     10 N           4.5937    0.5065   35.0772 N.ar    1  UNL1       -0.2119
     11 C           4.4635    0.0070   33.6689 C.ar    1  UNL1        0.1633
     12 N           3.4125    0.5790   32.7643 N.ar    1  UNL1       -0.2290
     13 N           3.8030    2.0776   36.9894 N.pl3   1  UNL1       -0.2880
     14 C           2.6299    2.7197   37.6688 C.3     1  UNL1        0.1242
     15 C           2.7600    3.2193   39.0772 C.3     1  UNL1        0.1636
     16 O           4.0632    3.0767   39.8062 O.3     1  UNL1       -0.3501
     17 C           5.2363    2.4346   39.1268 C.3     1  UNL1        0.1636
     18 C           5.1062    1.9350   37.7184 C.3     1  UNL1        0.1242
     19 C           1.4406    2.2224   32.3636 C.3     1  UNL1        0.1963
     20 C           1.8117    2.1324   29.3880 C.3     1  UNL1        0.1765
     21 S           1.6261    2.1774   30.8758 S.O2    1  UNL1       -0.0025
     22 O           0.6420    1.0490   30.7872 O.2     1  UNL1       -0.1726
     23 O           2.6103    3.3059   30.9645 O.2     1  UNL1       -0.1726
     24 N           8.1469   -4.2792   31.6534 N.am    1  UNL1       -0.2681
     25 C           8.0135   -4.7821   30.2465 C.2     1  UNL1        0.3082
     26 O           6.9594   -4.2134   29.3436 O.2     1  UNL1       -0.2522
     27 N           8.9344   -5.8536   29.7426 N.am    1  UNL1       -0.2681
     28 H           8.8388   -4.6524   32.2460 H       1  UNL1        0.1564
     29 H           9.6263   -6.2269   30.3353 H       1  UNL1        0.1564
     30 C           8.8010   -6.3565   28.3358 C.ar    1  UNL1        0.0517
     31 C           8.2300   -7.7194   28.0774 C.ar    1  UNL1        0.0170
     32 C           8.0967   -8.2223   26.6706 C.ar    1  UNL1        0.0309
     33 C           8.5343   -7.3623   25.5220 C.ar    1  UNL1        0.1402
     34 F           8.4009   -7.8652   24.1152 F       1  UNL1       -0.2042
     35 C           9.1052   -5.9995   25.7804 C.ar    1  UNL1        0.0309
     36 C           9.2386   -5.4966   27.1873 C.ar    1  UNL1        0.0170
@<TRIPOS>BOND
     1    20    21    1
     2    21    22    2
     3    21    23    2
     4    21    19    1
     5    19     7    1
     6     7     8   ar
     7     8     9   ar
     8     9    13    1
     9    13    14    1
    10    14    15    1
    11    15    16    1
    12    16    17    1
    13    17    18    1
    14     9    10   ar
    15    10    11   ar
    16    11     1    1
    17     1     2   ar
    18     2     3   ar
    19     3     4   ar
    20     4    24    1
    21    24    25   am
    22    25    26    2
    23    25    27   am
    24    27    30    1
    25    30    31   ar
    26    31    32   ar
    27    32    33   ar
    28    33    34    1
    29    33    35   ar
    30    35    36   ar
    31     4     5   ar
    32     5     6   ar
    33    11    12   ar
    34    12     7   ar
    35    18    13    1
    36     6     1   ar
    37    36    30   ar
    38    24    28    1
    39    27    29    1
@<TRIPOS>MOLECULE
*****
 36 39 0 0 0
SMALL
GASTEIGER

@<TRIPOS>ATOM
      1 C           5.1118   -0.5989   34.0073 C.ar    1  UNL1        0.0359
      2 C           4.5238   -1.9020   33.5534 C.ar    1  UNL1        0.0043
      3 C           5.3886   -2.9155   32.8642 C.ar    1  UNL1        0.0148
      4 C           6.8414   -2.6258   32.6288 C.ar    1  UNL1        0.0516
      5 C           7.4294   -1.3226   33.0827 C.ar    1  UNL1        0.0148
      6 C           6.5646   -0.3092   33.7719 C.ar    1  UNL1        0.0043
      7 C           3.3519    1.4932   36.8840 C.ar    1  UNL1        0.0872
      8 C           2.5175    2.4414   36.0750 C.ar    1  UNL1        0.0508
      9 C           2.5478    2.3762   34.5768 C.ar    1  UNL1        0.1347
     10 N           3.4125    1.3628   33.8875 N.ar    1  UNL1       -0.2119
     11 C           4.2470    0.4146   34.6965 C.ar    1  UNL1        0.1633
     12 N           4.2167    0.4798   36.1948 N.ar    1  UNL1       -0.2290
     13 N           1.7132    3.3245   33.7677 N.pl3   1  UNL1       -0.2880
     14 C           1.2114    4.5961   34.3852 C.3     1  UNL1        0.1242
     15 C           0.3770    5.5443   33.5763 C.3     1  UNL1        0.1636
     16 O           0.0442    5.2210   32.1498 O.3     1  UNL1       -0.3501
     17 C           0.5460    3.9494   31.5323 C.3     1  UNL1        0.1636
     18 C           1.3805    3.0011   32.3413 C.3     1  UNL1        0.1242
     19 C           3.3216    1.5585   38.3823 C.3     1  UNL1        0.1963
     20 C           0.7500    2.1587   39.8060 C.3     1  UNL1        0.1765
     21 S           2.0359    1.8586   39.0941 S.O2    1  UNL1       -0.0025
     22 O           2.6304    3.1254   39.6340 O.2     1  UNL1       -0.1726
     23 O           1.4413    0.5917   38.5543 O.2     1  UNL1       -0.1726
     24 N           7.7062   -3.6392   31.9396 N.am    1  UNL1       -0.2681
     25 C           7.5282   -3.9045   30.4740 C.2     1  UNL1        0.3082
     26 O           6.4853   -3.1563   29.6977 O.2     1  UNL1       -0.2522
     27 N           8.3930   -4.9179   29.7847 N.am    1  UNL1       -0.2681
     28 H           8.3907   -4.1302   32.4491 H       1  UNL1        0.1564
     29 H           9.0775   -5.4090   30.2943 H       1  UNL1        0.1564
     30 C           8.2150   -5.1832   28.3192 C.ar    1  UNL1        0.0517
     31 C           9.1147   -4.5160   27.3215 C.ar    1  UNL1        0.0170
     32 C           8.9367   -4.7813   25.8560 C.ar    1  UNL1        0.0309
     33 C           7.8588   -5.7137   25.3880 C.ar    1  UNL1        0.1402
     34 F           7.6808   -5.9790   23.9225 F       1  UNL1       -0.2042
     35 C           6.9591   -6.3809   26.3857 C.ar    1  UNL1        0.0309
     36 C           7.1372   -6.1156   27.8513 C.ar    1  UNL1        0.0170
@<TRIPOS>BOND
     1    20    21    1
     2    21    22    2
     3    21    23    2
     4    21    19    1
     5    19     7    1
     6     7     8   ar
     7     8     9   ar
     8     9    13    1
     9    13    14    1
    10    14    15    1
    11    15    16    1
    12    16    17    1
    13    17    18    1
    14     9    10   ar
    15    10    11   ar
    16    11     1    1
    17     1     2   ar
    18     2     3   ar
    19     3     4   ar
    20     4    24    1
    21    24    25   am
    22    25    26    2
    23    25    27   am
    24    27    30    1
    25    30    31   ar
    26    31    32   ar
    27    32    33   ar
    28    33    34    1
    29    33    35   ar
    30    35    36   ar
    31     4     5   ar
    32     5     6   ar
    33    11    12   ar
    34    12     7   ar
    35    18    13    1
    36     6     1   ar
    37    36    30   ar
    38    24    28    1
    39    27    29    1
@<TRIPOS>MOLECULE
*****
 36 39 0 0 0
SMALL
GASTEIGER

@<TRIPOS>ATOM
      1 C          -0.5689    2.5291   27.1134 C.ar    1  UNL1        0.0359
      2 C          -0.9224    1.2192   27.7531 C.ar    1  UNL1        0.0043
      3 C          -0.3497    0.8597   29.0921 C.ar    1  UNL1        0.0148
      4 C           0.5765    1.8101   29.7913 C.ar    1  UNL1        0.0516
      5 C           0.9299    3.1201   29.1515 C.ar    1  UNL1        0.0148
      6 C           0.3572    3.4795   27.8126 C.ar    1  UNL1        0.0043
      7 C          -0.8557    3.1723   23.2077 C.ar    1  UNL1        0.0872
      8 C          -2.2868    3.6075   23.0965 C.ar    1  UNL1        0.0508
      9 C          -3.1454    3.6832   24.3242 C.ar    1  UNL1        0.1347
     10 N          -2.5727    3.3237   25.6631 N.ar    1  UNL1       -0.2119
     11 C          -1.1416    2.8886   25.7744 C.ar    1  UNL1        0.1633
     12 N          -0.2831    2.8128   24.5467 N.ar    1  UNL1       -0.2290
     13 N          -4.5766    4.1184   24.2128 N.pl3   1  UNL1       -0.2880
     14 C          -5.2078    4.9106   25.3192 C.3     1  UNL1        0.1242
     15 C          -6.6389    5.3458   25.2079 C.3     1  UNL1        0.1636
     16 O          -7.4389    4.9888   23.9902 O.3     1  UNL1       -0.3501
     17 C          -6.8077    4.1967   22.8839 C.3     1  UNL1        0.1636
     18 C          -5.3765    3.7614   22.9952 C.3     1  UNL1        0.1242
     19 C           0.0028    3.0966   21.9800 C.3     1  UNL1        0.1963
     20 C           0.3747    0.4754   20.5690 C.3     1  UNL1        0.1765
     21 S           0.1888    1.7860   21.2746 S.O2    1  UNL1       -0.0025
     22 O          -1.1007    1.9993   20.5385 O.2     1  UNL1       -0.1726
     23 O           1.4782    1.5727   22.0106 O.2     1  UNL1       -0.1726
     24 N           1.1491    1.4507   31.1303 N.am    1  UNL1       -0.2681
     25 C           2.4350    0.6830   31.2143 C.2     1  UNL1        0.3082
     26 O           3.1482    0.2747   29.9595 O.2     1  UNL1       -0.2522
     27 N           3.0078    0.3235   32.5533 N.am    1  UNL1       -0.2681
     28 H           0.6811    1.7187   31.9539 H       1  UNL1        0.1564
     29 H           2.5397    0.5915   33.3769 H       1  UNL1        0.1564
     30 C           4.2937   -0.4442   32.6374 C.ar    1  UNL1        0.0517
     31 C           5.5937    0.2859   32.8011 C.ar    1  UNL1        0.0170
     32 C           6.8796   -0.4818   32.8852 C.ar    1  UNL1        0.0309
     33 C           6.8655   -1.9796   32.8055 C.ar    1  UNL1        0.1402
     34 F           8.1513   -2.7473   32.8896 F       1  UNL1       -0.2042
     35 C           5.5654   -2.7097   32.6418 C.ar    1  UNL1        0.0309
     36 C           4.2795   -1.9419   32.5577 C.ar    1  UNL1        0.0170
@<TRIPOS>BOND
     1    20    21    1
     2    21    22    2
     3    21    23    2
     4    21    19    1
     5    19     7    1
     6     7     8   ar
     7     8     9   ar
     8     9    13    1
     9    13    14    1
    10    14    15    1
    11    15    16    1
    12    16    17    1
    13    17    18    1
    14     9    10   ar
    15    10    11   ar
    16    11     1    1
    17     1     2   ar
    18     2     3   ar
    19     3     4   ar
    20     4    24    1
    21    24    25   am
    22    25    26    2
    23    25    27   am
    24    27    30    1
    25    30    31   ar
    26    31    32   ar
    27    32    33   ar
    28    33    34    1
    29    33    35   ar
    30    35    36   ar
    31     4     5   ar
    32     5     6   ar
    33    11    12   ar
    34    12     7   ar
    35    18    13    1
    36     6     1   ar
    37    36    30   ar
    38    24    28    1
    39    27    29    1
@<TRIPOS>MOLECULE
*****
 36 39 0 0 0
SMALL
GASTEIGER

@<TRIPOS>ATOM
      1 C           0.5431    2.3680   29.0607 C.ar    1  UNL1        0.0359
      2 C          -0.1834    1.3886   28.1873 C.ar    1  UNL1        0.0043
      3 C          -0.9240    1.8704   26.9750 C.ar    1  UNL1        0.0148
      4 C          -0.9380    3.3315   26.6362 C.ar    1  UNL1        0.0516
      5 C          -0.2114    4.3110   27.5097 C.ar    1  UNL1        0.0148
      6 C           0.5291    3.8292   28.7219 C.ar    1  UNL1        0.0043
      7 C           2.8139    0.1306   31.4245 C.ar    1  UNL1        0.0872
      8 C           2.7648    0.9228   32.6973 C.ar    1  UNL1        0.0508
      9 C           1.9751    2.1966   32.7579 C.ar    1  UNL1        0.1347
     10 N           1.2346    2.6784   31.5457 N.ar    1  UNL1       -0.2119
     11 C           1.2837    1.8863   30.2729 C.ar    1  UNL1        0.1633
     12 N           2.0733    0.6124   30.2123 N.ar    1  UNL1       -0.2290
     13 N           1.9260    2.9887   34.0308 N.pl3   1  UNL1       -0.2880
     14 C           1.2345    4.3195   34.0598 C.3     1  UNL1        0.1242
     15 C           1.1854    5.1116   35.3327 C.3     1  UNL1        0.1636
     16 O           1.8278    4.5730   36.5766 O.3     1  UNL1       -0.3501
     17 C           2.5194    3.2422   36.5475 C.3     1  UNL1        0.1636
     18 C           2.5685    2.4501   35.2746 C.3     1  UNL1        0.1242
     19 C           3.6036   -1.1432   31.3639 C.3     1  UNL1        0.1963
     20 C           5.9283   -1.5566   33.2146 C.3     1  UNL1        0.1765
     21 S           4.7659   -1.3499   32.2892 S.O2    1  UNL1       -0.0025
     22 O           5.5968   -0.4227   31.4526 O.2     1  UNL1       -0.1726
     23 O           3.9350   -2.2771   33.1258 O.2     1  UNL1       -0.1726
     24 N          -1.6785    3.8133   25.4240 N.am    1  UNL1       -0.2681
     25 C          -3.1495    4.0952   25.5066 C.2     1  UNL1        0.3082
     26 O          -3.8799    3.8952   26.8014 O.2     1  UNL1       -0.2522
     27 N          -3.8901    4.5770   24.2944 N.am    1  UNL1       -0.2681
     28 H          -1.1992    3.9445   24.5742 H       1  UNL1        0.1564
     29 H          -3.4107    4.7082   23.4445 H       1  UNL1        0.1564
     30 C          -5.3610    4.8588   24.3770 C.ar    1  UNL1        0.0517
     31 C          -5.8776    5.8655   25.3617 C.ar    1  UNL1        0.0170
     32 C          -7.3486    6.1474   25.4443 C.ar    1  UNL1        0.0309
     33 C          -8.3030    5.4225   24.5422 C.ar    1  UNL1        0.1402
     34 F          -9.7739    5.7043   24.6248 F       1  UNL1       -0.2042
     35 C          -7.7864    4.4158   23.5575 C.ar    1  UNL1        0.0309
     36 C          -6.3153    4.1340   23.4749 C.ar    1  UNL1        0.0170
@<TRIPOS>BOND
     1    20    21    1
     2    21    22    2
     3    21    23    2
     4    21    19    1
     5    19     7    1
     6     7     8   ar
     7     8     9   ar
     8     9    13    1
     9    13    14    1
    10    14    15    1
    11    15    16    1
    12    16    17    1
    13    17    18    1
    14     9    10   ar
    15    10    11   ar
    16    11     1    1
    17     1     2   ar
    18     2     3   ar
    19     3     4   ar
    20     4    24    1
    21    24    25   am
    22    25    26    2
    23    25    27   am
    24    27    30    1
    25    30    31   ar
    26    31    32   ar
    27    32    33   ar
    28    33    34    1
    29    33    35   ar
    30    35    36   ar
    31     4     5   ar
    32     5     6   ar
    33    11    12   ar
    34    12     7   ar
    35    18    13    1
    36     6     1   ar
    37    36    30   ar
    38    24    28    1
    39    27    29    1
@<TRIPOS>MOLECULE
*****
 36 39 0 0 0
SMALL
GASTEIGER

@<TRIPOS>ATOM
      1 C           2.8756    1.3141   31.2732 C.ar    1  UNL1        0.0359
      2 C           1.6089    1.8601   31.8624 C.ar    1  UNL1        0.0043
      3 C           0.7889    2.8511   31.0906 C.ar    1  UNL1        0.0148
      4 C           1.2357    3.2960   29.7296 C.ar    1  UNL1        0.0516
      5 C           2.5025    2.7499   29.1403 C.ar    1  UNL1        0.0148
      6 C           3.3224    1.7590   29.9122 C.ar    1  UNL1        0.0043
      7 C           4.6080   -0.5633   34.3103 C.ar    1  UNL1        0.0872
      8 C           5.3355   -1.6587   33.5886 C.ar    1  UNL1        0.0508
      9 C           5.2431   -1.7632   32.0951 C.ar    1  UNL1        0.1347
     10 N           4.4231   -0.7723   31.3233 N.ar    1  UNL1       -0.2119
     11 C           3.6956    0.3231   32.0450 C.ar    1  UNL1        0.1633
     12 N           3.7881    0.4276   33.5385 N.ar    1  UNL1       -0.2290
     13 N           5.9706   -2.8586   31.3734 N.pl3   1  UNL1       -0.2880
     14 C           6.1839   -2.7676   29.8915 C.3     1  UNL1        0.1242
     15 C           6.9114   -3.8630   29.1698 C.3     1  UNL1        0.1636
     16 O           7.4256   -5.0495   29.9301 O.3     1  UNL1       -0.3501
     17 C           7.2123   -5.1405   31.4120 C.3     1  UNL1        0.1636
     18 C           6.4848   -4.0450   32.1337 C.3     1  UNL1        0.1242
     19 C           4.7005   -0.4589   35.8038 C.3     1  UNL1        0.1963
     20 C           5.3029    2.1845   37.0882 C.3     1  UNL1        0.1765
     21 S           5.0017    0.8628   36.4460 S.O2    1  UNL1       -0.0025
     22 O           6.3643    0.8569   35.8190 O.2     1  UNL1       -0.1726
     23 O           3.6391    0.8687   37.0730 O.2     1  UNL1       -0.1726
     24 N           0.4158    4.2869   28.9577 N.am    1  UNL1       -0.2681
     25 C          -0.5614    3.8091   27.9249 C.2     1  UNL1        0.3082
     26 O          -0.7187    2.3404   27.6640 O.2     1  UNL1       -0.2522
     27 N          -1.3814    4.8001   27.1531 N.am    1  UNL1       -0.2681
     28 H           0.5190    5.2509   29.1290 H       1  UNL1        0.1564
     29 H          -1.2782    5.7641   27.3244 H       1  UNL1        0.1564
     30 C          -2.3586    4.3223   26.1203 C.ar    1  UNL1        0.0517
     31 C          -1.8924    4.0310   24.7246 C.ar    1  UNL1        0.0170
     32 C          -2.8696    3.5532   23.6918 C.ar    1  UNL1        0.0309
     33 C          -4.3131    3.3667   24.0546 C.ar    1  UNL1        0.1402
     34 F          -5.2904    2.8889   23.0219 F       1  UNL1       -0.2042
     35 C          -4.7794    3.6580   25.4503 C.ar    1  UNL1        0.0309
     36 C          -3.8021    4.1358   26.4831 C.ar    1  UNL1        0.0170
@<TRIPOS>BOND
     1    20    21    1
     2    21    22    2
     3    21    23    2
     4    21    19    1
     5    19     7    1
     6     7     8   ar
     7     8     9   ar
     8     9    13    1
     9    13    14    1
    10    14    15    1
    11    15    16    1
    12    16    17    1
    13    17    18    1
    14     9    10   ar
    15    10    11   ar
    16    11     1    1
    17     1     2   ar
    18     2     3   ar
    19     3     4   ar
    20     4    24    1
    21    24    25   am
    22    25    26    2
    23    25    27   am
    24    27    30    1
    25    30    31   ar
    26    31    32   ar
    27    32    33   ar
    28    33    34    1
    29    33    35   ar
    30    35    36   ar
    31     4     5   ar
    32     5     6   ar
    33    11    12   ar
    34    12     7   ar
    35    18    13    1
    36     6     1   ar
    37    36    30   ar
    38    24    28    1
    39    27    29    1
@<TRIPOS>MOLECULE
*****
 36 39 0 0 0
SMALL
GASTEIGER

@<TRIPOS>ATOM
      1 C           2.2490    0.2746   21.4949 C.ar    1  UNL1        0.0359
      2 C           2.2602    1.7366   21.8305 C.ar    1  UNL1        0.0043
      3 C           1.3923    2.6890   21.0625 C.ar    1  UNL1        0.0148
      4 C           0.5133    2.1795   19.9590 C.ar    1  UNL1        0.0516
      5 C           0.5022    0.7175   19.6234 C.ar    1  UNL1        0.0148
      6 C           1.3700   -0.2349   20.3914 C.ar    1  UNL1        0.0043
      7 C           4.7242   -2.7184   22.3104 C.ar    1  UNL1        0.0872
      8 C           4.8525   -2.5827   23.7987 C.ar    1  UNL1        0.0508
      9 C           4.1130   -1.4945   24.5191 C.ar    1  UNL1        0.1347
     10 N           3.2452   -0.5421   23.7512 N.ar    1  UNL1       -0.2119
     11 C           3.1169   -0.6778   22.2629 C.ar    1  UNL1        0.1633
     12 N           3.8564   -1.7660   21.5425 N.ar    1  UNL1       -0.2290
     13 N           4.2413   -1.3588   26.0074 N.pl3   1  UNL1       -0.2880
     14 C           3.2430   -0.5439   26.7751 C.3     1  UNL1        0.1242
     15 C           3.3713   -0.4082   28.2634 C.3     1  UNL1        0.1636
     16 O           4.4980   -1.0873   28.9841 O.3     1  UNL1       -0.3501
     17 C           5.4964   -1.9022   28.2165 C.3     1  UNL1        0.1636
     18 C           5.3680   -2.0379   26.7281 C.3     1  UNL1        0.1242
     19 C           5.4637   -3.8066   21.5900 C.3     1  UNL1        0.1963
     20 C           4.7719   -4.4611   18.7451 C.3     1  UNL1        0.1765
     21 S           5.1178   -4.1338   20.1676 S.O2    1  UNL1       -0.0025
     22 O           3.9993   -5.0135   20.6419 O.2     1  UNL1       -0.1726
     23 O           6.2363   -3.2541   19.6933 O.2     1  UNL1       -0.1726
     24 N          -0.3545    3.1319   19.1910 N.am    1  UNL1       -0.2681
     25 C          -1.7261    3.4699   19.6954 C.2     1  UNL1        0.3082
     26 O          -2.2298    2.8556   20.9677 O.2     1  UNL1       -0.2522
     27 N          -2.5940    4.4223   18.9274 N.am    1  UNL1       -0.2681
     28 H          -0.0239    3.5350   18.3559 H       1  UNL1        0.1564
     29 H          -2.2634    4.8255   18.0923 H       1  UNL1        0.1564
     30 C          -3.9656    4.7604   19.4318 C.ar    1  UNL1        0.0517
     31 C          -5.1163    3.8404   19.1498 C.ar    1  UNL1        0.0170
     32 C          -6.4878    4.1784   19.6542 C.ar    1  UNL1        0.0309
     33 C          -6.7088    5.4366   20.4406 C.ar    1  UNL1        0.1402
     34 F          -8.0804    5.7746   20.9450 F       1  UNL1       -0.2042
     35 C          -5.5581    6.3566   20.7226 C.ar    1  UNL1        0.0309
     36 C          -4.1865    6.0185   20.2182 C.ar    1  UNL1        0.0170
@<TRIPOS>BOND
     1    20    21    1
     2    21    22    2
     3    21    23    2
     4    21    19    1
     5    19     7    1
     6     7     8   ar
     7     8     9   ar
     8     9    13    1
     9    13    14    1
    10    14    15    1
    11    15    16    1
    12    16    17    1
    13    17    18    1
    14     9    10   ar
    15    10    11   ar
    16    11     1    1
    17     1     2   ar
    18     2     3   ar
    19     3     4   ar
    20     4    24    1
    21    24    25   am
    22    25    26    2
    23    25    27   am
    24    27    30    1
    25    30    31   ar
    26    31    32   ar
    27    32    33   ar
    28    33    34    1
    29    33    35   ar
    30    35    36   ar
    31     4     5   ar
    32     5     6   ar
    33    11    12   ar
    34    12     7   ar
    35    18    13    1
    36     6     1   ar
    37    36    30   ar
    38    24    28    1
    39    27    29    1
@<TRIPOS>MOLECULE
*****
 36 39 0 0 0
SMALL
GASTEIGER

@<TRIPOS>ATOM
      1 C          -3.9037    4.5983   24.9838 C.ar    1  UNL1        0.0359
      2 C          -4.6396    4.6541   26.2896 C.ar    1  UNL1        0.0043
      3 C          -5.9075    5.4478   26.4027 C.ar    1  UNL1        0.0148
      4 C          -6.4393    6.1856   25.2099 C.ar    1  UNL1        0.0516
      5 C          -5.7033    6.1298   23.9040 C.ar    1  UNL1        0.0148
      6 C          -4.4355    5.3361   23.7910 C.ar    1  UNL1        0.0043
      7 C          -0.5970    3.0085   23.4710 C.ar    1  UNL1        0.0872
      8 C          -0.1003    2.2173   24.6445 C.ar    1  UNL1        0.0508
      9 C          -0.8714    2.2197   25.9311 C.ar    1  UNL1        0.1347
     10 N          -2.1391    3.0134   26.0442 N.ar    1  UNL1       -0.2119
     11 C          -2.6358    3.8046   24.8707 C.ar    1  UNL1        0.1633
     12 N          -1.8648    3.8022   23.5841 N.ar    1  UNL1       -0.2290
     13 N          -0.3746    1.4285   27.1047 N.pl3   1  UNL1       -0.2880
     14 C           1.0864    1.1138   27.2327 C.3     1  UNL1        0.1242
     15 C           1.5832    0.3226   28.4062 C.3     1  UNL1        0.1636
     16 O           0.6190   -0.1540   29.4517 O.3     1  UNL1       -0.3501
     17 C          -0.8421    0.1606   29.3237 C.3     1  UNL1        0.1636
     18 C          -1.3388    0.9518   28.1501 C.3     1  UNL1        0.1242
     19 C           0.1741    3.0061   22.1843 C.3     1  UNL1        0.1963
     20 C           0.2197    0.5463   20.4675 C.3     1  UNL1        0.1765
     21 S           0.1969    1.7762   21.3260 S.O2    1  UNL1       -0.0025
     22 O          -1.1893    2.0866   20.8443 O.2     1  UNL1       -0.1726
     23 O           1.5831    1.4658   21.8076 O.2     1  UNL1       -0.1726
     24 N          -7.7071    6.9793   25.3229 N.am    1  UNL1       -0.2681
     25 C          -9.0010    6.3994   24.8339 C.2     1  UNL1        0.3082
     26 O          -9.0273    5.0257   24.2318 O.2     1  UNL1       -0.2522
     27 N         -10.2689    7.1930   24.9469 N.am    1  UNL1       -0.2681
     28 H          -7.6898    7.8809   25.7181 H       1  UNL1        0.1564
     29 H         -10.2517    8.0946   25.3420 H       1  UNL1        0.1564
     30 C         -11.5629    6.6131   24.4578 C.ar    1  UNL1        0.0517
     31 C         -12.3818    7.3555   23.4438 C.ar    1  UNL1        0.0170
     32 C         -13.6758    6.7755   22.9547 C.ar    1  UNL1        0.0309
     33 C         -14.1509    5.4531   23.4797 C.ar    1  UNL1        0.1402
     34 F         -15.4449    4.8732   22.9907 F       1  UNL1       -0.2042
     35 C         -13.3320    4.7107   24.4937 C.ar    1  UNL1        0.0309
     36 C         -12.0380    5.2907   24.9828 C.ar    1  UNL1        0.0170
@<TRIPOS>BOND
     1    20    21    1
     2    21    22    2
     3    21    23    2
     4    21    19    1
     5    19     7    1
     6     7     8   ar
     7     8     9   ar
     8     9    13    1
     9    13    14    1
    10    14    15    1
    11    15    16    1
    12    16    17    1
    13    17    18    1
    14     9    10   ar
    15    10    11   ar
    16    11     1    1
    17     1     2   ar
    18     2     3   ar
    19     3     4   ar
    20     4    24    1
    21    24    25   am
    22    25    26    2
    23    25    27   am
    24    27    30    1
    25    30    31   ar
    26    31    32   ar
    27    32    33   ar
    28    33    34    1
    29    33    35   ar
    30    35    36   ar
    31     4     5   ar
    32     5     6   ar
    33    11    12   ar
    34    12     7   ar
    35    18    13    1
    36     6     1   ar
    37    36    30   ar
    38    24    28    1
    39    27    29    1
@<TRIPOS>MOLECULE
*****
 36 39 0 0 0
SMALL
GASTEIGER

@<TRIPOS>ATOM
      1 C          -1.5754    3.5106   25.8181 C.ar    1  UNL1        0.0359
      2 C          -0.8707    2.2083   25.5783 C.ar    1  UNL1        0.0043
      3 C           0.4518    1.9394   26.2331 C.ar    1  UNL1        0.0148
      4 C           1.0696    2.9728   27.1277 C.ar    1  UNL1        0.0516
      5 C           0.3649    4.2751   27.3675 C.ar    1  UNL1        0.0148
      6 C          -0.9575    4.5440   26.7127 C.ar    1  UNL1        0.0043
      7 C          -4.4902    3.5355   23.1250 C.ar    1  UNL1        0.0872
      8 C          -5.5427    4.3173   23.8537 C.ar    1  UNL1        0.0508
      9 C          -5.2728    4.8302   25.2372 C.ar    1  UNL1        0.1347
     10 N          -3.9504    4.5613   25.8920 N.ar    1  UNL1       -0.2119
     11 C          -2.8979    3.7795   25.1633 C.ar    1  UNL1        0.1633
     12 N          -3.1678    3.2666   23.7798 N.ar    1  UNL1       -0.2290
     13 N          -6.3254    5.6120   25.9659 N.pl3   1  UNL1       -0.2880
     14 C          -7.4987    6.1700   25.2162 C.3     1  UNL1        0.1242
     15 C          -8.5513    6.9517   25.9449 C.3     1  UNL1        0.1636
     16 O          -8.4305    7.1755   27.4232 O.3     1  UNL1       -0.3501
     17 C          -7.2572    6.6175   28.1728 C.3     1  UNL1        0.1636
     18 C          -6.2046    5.8357   27.4441 C.3     1  UNL1        0.1242
     19 C          -4.7602    3.0226   21.7415 C.3     1  UNL1        0.1963
     20 C          -3.3575    4.2453   19.3882 C.3     1  UNL1        0.1765
     21 S          -4.0588    3.6339   20.5649 S.O2    1  UNL1       -0.0025
     22 O          -5.1261    4.6840   20.4743 O.2     1  UNL1       -0.1726
     23 O          -2.9916    2.5838   20.6555 O.2     1  UNL1       -0.1726
     24 N           2.3921    2.7039   27.7825 N.am    1  UNL1       -0.2681
     25 C           2.4599    1.8462   29.0112 C.2     1  UNL1        0.3082
     26 O           1.2054    1.2574   29.5851 O.2     1  UNL1       -0.2522
     27 N           3.7824    1.5773   29.6660 N.am    1  UNL1       -0.2681
     28 H           3.2155    3.0904   27.4059 H       1  UNL1        0.1564
     29 H           4.6059    1.9638   29.2894 H       1  UNL1        0.1564
     30 C           3.8503    0.7196   30.8947 C.ar    1  UNL1        0.0517
     31 C           4.2088   -0.7322   30.7771 C.ar    1  UNL1        0.0170
     32 C           4.2767   -1.5899   32.0058 C.ar    1  UNL1        0.0309
     33 C           3.9861   -0.9958   33.3522 C.ar    1  UNL1        0.1402
     34 F           4.0539   -1.8536   34.5808 F       1  UNL1       -0.2042
     35 C           3.6275    0.4559   33.4698 C.ar    1  UNL1        0.0309
     36 C           3.5597    1.3136   32.2410 C.ar    1  UNL1        0.0170
@<TRIPOS>BOND
     1    20    21    1
     2    21    22    2
     3    21    23    2
     4    21    19    1
     5    19     7    1
     6     7     8   ar
     7     8     9   ar
     8     9    13    1
     9    13    14    1
    10    14    15    1
    11    15    16    1
    12    16    17    1
    13    17    18    1
    14     9    10   ar
    15    10    11   ar
    16    11     1    1
    17     1     2   ar
    18     2     3   ar
    19     3     4   ar
    20     4    24    1
    21    24    25   am
    22    25    26    2
    23    25    27   am
    24    27    30    1
    25    30    31   ar
    26    31    32   ar
    27    32    33   ar
    28    33    34    1
    29    33    35   ar
    30    35    36   ar
    31     4     5   ar
    32     5     6   ar
    33    11    12   ar
    34    12     7   ar
    35    18    13    1
    36     6     1   ar
    37    36    30   ar
    38    24    28    1
    39    27    29    1
@<TRIPOS>MOLECULE
*****
 36 39 0 0 0
SMALL
GASTEIGER

@<TRIPOS>ATOM
      1 C           0.8133    1.3523   24.4086 C.ar    1  UNL1        0.0359
      2 C           2.1172    0.9279   25.0167 C.ar    1  UNL1        0.0043
      3 C           2.2526    0.8288   26.5073 C.ar    1  UNL1        0.0148
      4 C           1.0841    1.1542   27.3898 C.ar    1  UNL1        0.0516
      5 C          -0.2198    1.5787   26.7816 C.ar    1  UNL1        0.0148
      6 C          -0.3551    1.6777   25.2911 C.ar    1  UNL1        0.0043
      7 C          -0.4623    2.4881   20.8263 C.ar    1  UNL1        0.0872
      8 C           0.4070    1.6495   19.9368 C.ar    1  UNL1        0.0508
      9 C           1.4118    0.7119   20.5380 C.ar    1  UNL1        0.1347
     10 N           1.5472    0.6129   22.0285 N.ar    1  UNL1       -0.2119
     11 C           0.6779    1.4514   22.9179 C.ar    1  UNL1        0.1633
     12 N          -0.3268    2.3890   22.3168 N.ar    1  UNL1       -0.2290
     13 N           2.2811   -0.1266   19.6485 N.pl3   1  UNL1       -0.2880
     14 C           2.5741    0.3218   18.2473 C.3     1  UNL1        0.1242
     15 C           3.4434   -0.5167   17.3578 C.3     1  UNL1        0.1636
     16 O           4.0197   -1.8036   17.8694 O.3     1  UNL1       -0.3501
     17 C           3.7268   -2.2520   19.2706 C.3     1  UNL1        0.1636
     18 C           2.8575   -1.4135   20.1601 C.3     1  UNL1        0.1242
     19 C          -1.4670    3.4257   20.2252 C.3     1  UNL1        0.1963
     20 C          -3.6744    4.5464   21.9197 C.3     1  UNL1        0.1765
     21 S          -2.5707    3.9860   21.0724 S.O2    1  UNL1       -0.0025
     22 O          -3.3317    2.7012   20.9309 O.2     1  UNL1       -0.1726
     23 O          -1.8097    5.2708   21.2140 O.2     1  UNL1       -0.1726
     24 N           1.2195    1.0552   28.8803 N.am    1  UNL1       -0.2681
     25 C           1.2635    2.3015   29.7138 C.2     1  UNL1        0.3082
     26 O           1.1722    3.6468   29.0568 O.2     1  UNL1       -0.2522
     27 N           1.3989    2.2025   31.2045 N.am    1  UNL1       -0.2681
     28 H           1.2794    0.1722   29.3116 H       1  UNL1        0.1564
     29 H           1.4589    1.3195   31.6358 H       1  UNL1        0.1564
     30 C           1.4429    3.4488   32.0380 C.ar    1  UNL1        0.0517
     31 C           0.1665    4.0968   32.4862 C.ar    1  UNL1        0.0170
     32 C           0.2106    5.3431   33.3197 C.ar    1  UNL1        0.0309
     33 C           1.5311    5.9415   33.7050 C.ar    1  UNL1        0.1402
     34 F           1.5751    7.1878   34.5385 F       1  UNL1       -0.2042
     35 C           2.8074    5.2935   33.2568 C.ar    1  UNL1        0.0309
     36 C           2.7634    4.0471   32.4232 C.ar    1  UNL1        0.0170
@<TRIPOS>BOND
     1    20    21    1
     2    21    22    2
     3    21    23    2
     4    21    19    1
     5    19     7    1
     6     7     8   ar
     7     8     9   ar
     8     9    13    1
     9    13    14    1
    10    14    15    1
    11    15    16    1
    12    16    17    1
    13    17    18    1
    14     9    10   ar
    15    10    11   ar
    16    11     1    1
    17     1     2   ar
    18     2     3   ar
    19     3     4   ar
    20     4    24    1
    21    24    25   am
    22    25    26    2
    23    25    27   am
    24    27    30    1
    25    30    31   ar
    26    31    32   ar
    27    32    33   ar
    28    33    34    1
    29    33    35   ar
    30    35    36   ar
    31     4     5   ar
    32     5     6   ar
    33    11    12   ar
    34    12     7   ar
    35    18    13    1
    36     6     1   ar
    37    36    30   ar
    38    24    28    1
    39    27    29    1
