@<TRIPOS>MOLECULE
*****
 27 30 0 0 0
SMALL
GASTEIGER

@<TRIPOS>ATOM
      1 C           3.8603   -1.8145   18.8241 C.ar    1  UNL1       -0.0065
      2 C           4.2307   -0.7041   17.8862 C.ar    1  UNL1       -0.0032
      3 C           3.4174    0.5559   17.8571 C.ar    1  UNL1       -0.0032
      4 C           2.2336    0.7055   18.7661 C.ar    1  UNL1       -0.0062
      5 C           1.8632   -0.4049   19.7040 C.ar    1  UNL1       -0.0231
      6 C           2.6765   -1.6649   19.7331 C.ar    1  UNL1       -0.0074
      7 C           0.6793   -0.2553   20.6130 C.3     1  UNL1        0.0476
      8 C          -0.1341    1.0047   20.5840 C.3     1  UNL1        0.0987
      9 N           0.2364    2.1151   19.6460 N.am    1  UNL1       -0.2705
     10 C          -0.5770    3.3751   19.6169 C.2     1  UNL1        0.2652
     11 O          -0.2066    4.4855   18.6790 O.2     1  UNL1       -0.2683
     12 C           1.4202    1.9655   18.7370 C.3     1  UNL1        0.1202
     13 C          -1.7608    3.5247   20.5259 C.ar    1  UNL1        0.1143
     14 C          -3.2007    3.5264   20.1054 C.ar    1  UNL1        0.0233
     15 C          -4.0423    3.7016   21.3346 C.ar    1  UNL1        0.0182
     16 C          -5.5274    3.7779   21.5317 C.ar    1  UNL1        0.0129
     17 C          -6.0927    3.9607   22.9091 C.ar    1  UNL1        0.0578
     18 CL         -7.5778    4.0369   23.1062 Cl      1  UNL1       -0.0822
     19 C          -5.1730    4.0672   24.0892 C.ar    1  UNL1        0.0129
     20 C          -3.6880    3.9909   23.8921 C.ar    1  UNL1        0.0181
     21 C          -3.1226    3.8081   22.5149 C.ar    1  UNL1        0.0601
     22 N          -1.7126    3.6988   22.0150 N.ar    1  UNL1       -0.3216
     23 C          -0.4722    3.7539   22.8566 C.3     1  UNL1        0.1306
     24 C           4.6737   -3.0745   18.8532 C.3     1  UNL1        0.0992
     25 C           3.5463   -5.2439   19.7320 C.3     1  UNL1        0.0899
     26 N           4.4641   -4.0774   19.9486 N.3     1  UNL1       -0.2665
     27 C           5.1722   -3.9138   21.2609 C.3     1  UNL1        0.0899
@<TRIPOS>BOND
     1    25    26    1
     2    26    27    1
     3    26    24    1
     4    24     1    1
     5     1     2   ar
     6     2     3   ar
     7     3     4   ar
     8     4     5   ar
     9     5     6   ar
    10     5     7    1
    11     7     8    1
    12     8     9    1
    13     9    10   am
    14    10    11    2
    15    10    13    1
    16    13    14   ar
    17    14    15   ar
    18    15    16   ar
    19    16    17   ar
    20    17    18    1
    21    17    19   ar
    22    19    20   ar
    23    20    21   ar
    24    21    22   ar
    25    22    23    1
    26     9    12    1
    27     6     1   ar
    28    22    13   ar
    29    12     4    1
    30    21    15   ar
@<TRIPOS>MOLECULE
*****
 27 30 0 0 0
SMALL
GASTEIGER

@<TRIPOS>ATOM
      1 C           3.9311   -1.9717   18.6468 C.ar    1  UNL1       -0.0065
      2 C           3.9594   -0.9784   17.5232 C.ar    1  UNL1       -0.0032
      3 C           3.0602    0.2216   17.5602 C.ar    1  UNL1       -0.0032
      4 C           2.1328    0.4285   18.7208 C.ar    1  UNL1       -0.0062
      5 C           2.1046   -0.5648   19.8444 C.ar    1  UNL1       -0.0231
      6 C           3.0037   -1.7649   19.8074 C.ar    1  UNL1       -0.0074
      7 C           1.1772   -0.3580   21.0052 C.3     1  UNL1        0.0476
      8 C           0.2780    0.8421   21.0422 C.3     1  UNL1        0.0987
      9 N           0.3063    1.8353   19.9185 N.am    1  UNL1       -0.2705
     10 C          -0.5928    3.0354   19.9555 C.2     1  UNL1        0.2652
     11 O          -0.5646    4.0287   18.8318 O.2     1  UNL1       -0.2683
     12 C           1.2337    1.6285   18.7578 C.3     1  UNL1        0.1202
     13 C          -1.5203    3.2422   21.1162 C.ar    1  UNL1        0.1143
     14 C          -1.1214    3.3237   22.5598 C.ar    1  UNL1        0.0233
     15 C          -2.3640    3.5357   23.3728 C.ar    1  UNL1        0.0182
     16 C          -2.5837    3.6900   24.8486 C.ar    1  UNL1        0.0129
     17 C          -3.9704    3.8938   25.3832 C.ar    1  UNL1        0.0578
     18 CL         -4.1901    4.0481   26.8589 Cl      1  UNL1       -0.0822
     19 C          -5.1372    3.9433   24.4419 C.ar    1  UNL1        0.0129
     20 C          -4.9175    3.7890   22.9662 C.ar    1  UNL1        0.0181
     21 C          -3.5309    3.5852   22.4316 C.ar    1  UNL1        0.0601
     22 N          -3.0094    3.4038   21.0369 N.ar    1  UNL1       -0.3216
     23 C          -3.8326    3.3870   19.7831 C.3     1  UNL1        0.1306
     24 C           4.8303   -3.1718   18.6098 C.3     1  UNL1        0.0992
     25 C           6.5400   -3.8505   20.4445 C.3     1  UNL1        0.0899
     26 N           6.2103   -3.0932   19.1924 N.3     1  UNL1       -0.2665
     27 C           7.2606   -2.2574   18.5228 C.3     1  UNL1        0.0899
@<TRIPOS>BOND
     1    25    26    1
     2    26    27    1
     3    26    24    1
     4    24     1    1
     5     1     2   ar
     6     2     3   ar
     7     3     4   ar
     8     4     5   ar
     9     5     6   ar
    10     5     7    1
    11     7     8    1
    12     8     9    1
    13     9    10   am
    14    10    11    2
    15    10    13    1
    16    13    14   ar
    17    14    15   ar
    18    15    16   ar
    19    16    17   ar
    20    17    18    1
    21    17    19   ar
    22    19    20   ar
    23    20    21   ar
    24    21    22   ar
    25    22    23    1
    26     9    12    1
    27     6     1   ar
    28    22    13   ar
    29    12     4    1
    30    21    15   ar
@<TRIPOS>MOLECULE
*****
 27 30 0 0 0
SMALL
GASTEIGER

@<TRIPOS>ATOM
      1 C           3.9635   -1.7219   18.8996 C.ar    1  UNL1       -0.0065
      2 C           4.3561   -0.6278   17.9516 C.ar    1  UNL1       -0.0032
      3 C           3.5235    0.6163   17.8559 C.ar    1  UNL1       -0.0032
      4 C           2.2984    0.7663   18.7082 C.ar    1  UNL1       -0.0062
      5 C           1.9059   -0.3278   19.6563 C.ar    1  UNL1       -0.0231
      6 C           2.7384   -1.5719   19.7520 C.ar    1  UNL1       -0.0074
      7 C           0.6807   -0.1778   20.5087 C.3     1  UNL1        0.0476
      8 C          -0.1518    1.0663   20.4130 C.3     1  UNL1        0.0987
      9 N           0.2408    2.1604   19.4649 N.am    1  UNL1       -0.2705
     10 C          -0.5917    3.4045   19.3692 C.2     1  UNL1        0.2652
     11 O          -0.1991    4.4985   18.4211 O.2     1  UNL1       -0.2683
     12 C           1.4659    2.0104   18.6125 C.3     1  UNL1        0.1202
     13 C          -1.8169    3.5545   20.2216 C.ar    1  UNL1        0.1143
     14 C          -1.8546    3.5422   21.7211 C.ar    1  UNL1        0.0233
     15 C          -3.2804    3.7232   22.1504 C.ar    1  UNL1        0.0182
     16 C          -3.9197    3.7911   23.5057 C.ar    1  UNL1        0.0129
     17 C          -5.4024    3.9830   23.6267 C.ar    1  UNL1        0.0578
     18 CL         -6.0417    4.0509   24.9820 Cl      1  UNL1       -0.0822
     19 C          -6.2459    4.1071   22.3926 C.ar    1  UNL1        0.0129
     20 C          -5.6066    4.0393   21.0373 C.ar    1  UNL1        0.0181
     21 C          -4.1239    3.8473   20.9162 C.ar    1  UNL1        0.0601
     22 N          -3.2194    3.7430   19.7242 N.ar    1  UNL1       -0.3216
     23 C          -3.6430    3.8147   18.2871 C.3     1  UNL1        0.1306
     24 C           4.7960   -2.9660   18.9953 C.3     1  UNL1        0.0992
     25 C           3.5369   -5.1193   19.7217 C.3     1  UNL1        0.0899
     26 N           4.4835   -3.9992   20.0368 N.3     1  UNL1       -0.2665
     27 C           5.1177   -3.9125   21.3934 C.3     1  UNL1        0.0899
@<TRIPOS>BOND
     1    25    26    1
     2    26    27    1
     3    26    24    1
     4    24     1    1
     5     1     2   ar
     6     2     3   ar
     7     3     4   ar
     8     4     5   ar
     9     5     6   ar
    10     5     7    1
    11     7     8    1
    12     8     9    1
    13     9    10   am
    14    10    11    2
    15    10    13    1
    16    13    14   ar
    17    14    15   ar
    18    15    16   ar
    19    16    17   ar
    20    17    18    1
    21    17    19   ar
    22    19    20   ar
    23    20    21   ar
    24    21    22   ar
    25    22    23    1
    26     9    12    1
    27     6     1   ar
    28    22    13   ar
    29    12     4    1
    30    21    15   ar
@<TRIPOS>MOLECULE
*****
 27 30 0 0 0
SMALL
GASTEIGER

@<TRIPOS>ATOM
      1 C           2.5994   -0.9624   19.8734 C.ar    1  UNL1       -0.0065
      2 C           3.4086   -1.9139   19.0430 C.ar    1  UNL1       -0.0032
      3 C           4.4199   -2.8075   19.6978 C.ar    1  UNL1       -0.0032
      4 C           4.6220   -2.7495   21.1830 C.ar    1  UNL1       -0.0062
      5 C           3.8128   -1.7979   22.0133 C.ar    1  UNL1       -0.0231
      6 C           2.8015   -0.9044   21.3586 C.ar    1  UNL1       -0.0074
      7 C           4.0149   -1.7399   23.4986 C.3     1  UNL1        0.0476
      8 C           5.0262   -2.6335   24.1534 C.3     1  UNL1        0.0987
      9 N           5.8355   -3.5851   23.3229 N.am    1  UNL1       -0.2705
     10 C           6.8468   -4.4787   23.9777 C.2     1  UNL1        0.2652
     11 O           7.6560   -5.4302   23.1473 O.2     1  UNL1       -0.2683
     12 C           5.6334   -3.6431   21.8377 C.3     1  UNL1        0.1202
     13 C           7.0489   -4.4206   25.4629 C.ar    1  UNL1        0.1143
     14 C           6.5230   -5.4067   26.4635 C.ar    1  UNL1        0.0233
     15 C           6.9614   -4.9618   27.8272 C.ar    1  UNL1        0.0182
     16 C           6.7380   -5.5420   29.1923 C.ar    1  UNL1        0.0129
     17 C           7.3115   -4.8612   30.3997 C.ar    1  UNL1        0.0578
     18 CL          7.0881   -5.4414   31.7647 Cl      1  UNL1       -0.0822
     19 C           8.1083   -3.6002   30.2419 C.ar    1  UNL1        0.0129
     20 C           8.3317   -3.0200   28.8769 C.ar    1  UNL1        0.0181
     21 C           7.7583   -3.7007   27.6695 C.ar    1  UNL1        0.0601
     22 N           7.8123   -3.3663   26.2083 N.ar    1  UNL1       -0.3216
     23 C           8.5077   -2.1849   25.5994 C.3     1  UNL1        0.1306
     24 C           1.5880   -0.0688   19.2187 C.3     1  UNL1        0.0992
     25 C           0.9139    2.3521   18.5592 C.3     1  UNL1        0.0899
     26 N           1.9741    1.3178   18.7965 N.3     1  UNL1       -0.2665
     27 C           3.4204    1.6703   18.6118 C.3     1  UNL1        0.0899
@<TRIPOS>BOND
     1    25    26    1
     2    26    27    1
     3    26    24    1
     4    24     1    1
     5     1     2   ar
     6     2     3   ar
     7     3     4   ar
     8     4     5   ar
     9     5     6   ar
    10     5     7    1
    11     7     8    1
    12     8     9    1
    13     9    10   am
    14    10    11    2
    15    10    13    1
    16    13    14   ar
    17    14    15   ar
    18    15    16   ar
    19    16    17   ar
    20    17    18    1
    21    17    19   ar
    22    19    20   ar
    23    20    21   ar
    24    21    22   ar
    25    22    23    1
    26     9    12    1
    27     6     1   ar
    28    22    13   ar
    29    12     4    1
    30    21    15   ar
@<TRIPOS>MOLECULE
*****
 27 30 0 0 0
SMALL
GASTEIGER

@<TRIPOS>ATOM
      1 C         -17.7843    2.1805   20.7716 C.ar    1  UNL1       -0.0065
      2 C         -16.9950    3.1936   19.9968 C.ar    1  UNL1       -0.0032
      3 C         -15.7692    2.7719   19.2421 C.ar    1  UNL1       -0.0032
      4 C         -15.3328    1.3369   19.2621 C.ar    1  UNL1       -0.0062
      5 C         -16.1221    0.3238   20.0369 C.ar    1  UNL1       -0.0231
      6 C         -17.3479    0.7455   20.7916 C.ar    1  UNL1       -0.0074
      7 C         -15.6858   -1.1113   20.0570 C.3     1  UNL1        0.0476
      8 C         -14.4600   -1.5330   19.3023 C.3     1  UNL1        0.0987
      9 N         -13.6706   -0.5198   18.5275 N.am    1  UNL1       -0.2705
     10 C         -12.4448   -0.9416   17.7728 C.2     1  UNL1        0.2652
     11 O         -11.6554    0.0716   16.9980 O.2     1  UNL1       -0.2683
     12 C         -14.1070    0.9152   18.5074 C.3     1  UNL1        0.1202
     13 C         -12.0084   -2.3766   17.7929 C.ar    1  UNL1        0.1143
     14 C         -10.9118   -2.9529   18.6387 C.ar    1  UNL1        0.0233
     15 C         -10.8177   -4.4197   18.3392 C.ar    1  UNL1        0.0182
     16 C          -9.9206   -5.4973   18.8721 C.ar    1  UNL1        0.0129
     17 C         -10.0620   -6.9052   18.3740 C.ar    1  UNL1        0.0578
     18 CL         -9.1648   -7.9828   18.9068 Cl      1  UNL1       -0.0822
     19 C         -11.1004   -7.2354   17.3432 C.ar    1  UNL1        0.0129
     20 C         -11.9975   -6.1577   16.8104 C.ar    1  UNL1        0.0181
     21 C         -11.8562   -4.7499   17.3084 C.ar    1  UNL1        0.0601
     22 N         -12.5921   -3.4872   16.9708 N.ar    1  UNL1       -0.3216
     23 C         -13.7145   -3.3578   15.9842 C.3     1  UNL1        0.1306
     24 C         -19.0101    2.6022   21.5263 C.3     1  UNL1        0.0992
     25 C         -18.0615    4.0258   23.4816 C.3     1  UNL1        0.0899
     26 N         -18.9223    2.8983   22.9941 N.3     1  UNL1       -0.2665
     27 C         -19.6953    2.0667   23.9745 C.3     1  UNL1        0.0899
@<TRIPOS>BOND
     1    25    26    1
     2    26    27    1
     3    26    24    1
     4    24     1    1
     5     1     2   ar
     6     2     3   ar
     7     3     4   ar
     8     4     5   ar
     9     5     6   ar
    10     5     7    1
    11     7     8    1
    12     8     9    1
    13     9    10   am
    14    10    11    2
    15    10    13    1
    16    13    14   ar
    17    14    15   ar
    18    15    16   ar
    19    16    17   ar
    20    17    18    1
    21    17    19   ar
    22    19    20   ar
    23    20    21   ar
    24    21    22   ar
    25    22    23    1
    26     9    12    1
    27     6     1   ar
    28    22    13   ar
    29    12     4    1
    30    21    15   ar
@<TRIPOS>MOLECULE
*****
 27 30 0 0 0
SMALL
GASTEIGER

@<TRIPOS>ATOM
      1 C          -2.2793  -19.0283   21.0208 C.ar    1  UNL1       -0.0065
      2 C          -2.6041  -19.6694   19.7042 C.ar    1  UNL1       -0.0032
      3 C          -4.0337  -19.9124   19.3207 C.ar    1  UNL1       -0.0032
      4 C          -5.1386  -19.5144   20.2538 C.ar    1  UNL1       -0.0062
      5 C          -4.8138  -18.8733   21.5704 C.ar    1  UNL1       -0.0231
      6 C          -3.3842  -18.6303   21.9539 C.ar    1  UNL1       -0.0074
      7 C          -5.9187  -18.4752   22.5036 C.3     1  UNL1        0.0476
      8 C          -7.3484  -18.7183   22.1201 C.3     1  UNL1        0.0987
      9 N          -7.6731  -19.3594   20.8034 N.am    1  UNL1       -0.2705
     10 C          -9.1027  -19.6024   20.4199 C.2     1  UNL1        0.2652
     11 O          -9.4275  -20.2435   19.1033 O.2     1  UNL1       -0.2683
     12 C          -6.5682  -19.7574   19.8703 C.3     1  UNL1        0.1202
     13 C         -10.2077  -19.2043   21.3531 C.ar    1  UNL1        0.1143
     14 C         -10.4689  -19.7879   22.7100 C.ar    1  UNL1        0.0233
     15 C         -11.6680  -19.0970   23.2887 C.ar    1  UNL1        0.0182
     16 C         -12.3849  -19.2576   24.5965 C.ar    1  UNL1        0.0129
     17 C         -13.5817  -18.4075   24.9050 C.ar    1  UNL1        0.0578
     18 CL        -14.2987  -18.5680   26.2127 Cl      1  UNL1       -0.0822
     19 C         -14.0615  -17.3969   23.9057 C.ar    1  UNL1        0.0129
     20 C         -13.3446  -17.2364   22.5980 C.ar    1  UNL1        0.0181
     21 C         -12.1478  -18.0864   22.2895 C.ar    1  UNL1        0.0601
     22 N         -11.2453  -18.1527   21.0932 N.ar    1  UNL1       -0.3216
     23 C         -11.3602  -17.3146   19.8546 C.3     1  UNL1        0.1306
     24 C          -0.8497  -18.7853   21.4043 C.3     1  UNL1        0.0992
     25 C           1.3759  -17.8127   20.4819 C.3     1  UNL1        0.0899
     26 N          -0.0864  -17.6565   20.7773 N.3     1  UNL1       -0.2665
     27 C          -0.7855  -16.3715   20.4455 C.3     1  UNL1        0.0899
@<TRIPOS>BOND
     1    25    26    1
     2    26    27    1
     3    26    24    1
     4    24     1    1
     5     1     2   ar
     6     2     3   ar
     7     3     4   ar
     8     4     5   ar
     9     5     6   ar
    10     5     7    1
    11     7     8    1
    12     8     9    1
    13     9    10   am
    14    10    11    2
    15    10    13    1
    16    13    14   ar
    17    14    15   ar
    18    15    16   ar
    19    16    17   ar
    20    17    18    1
    21    17    19   ar
    22    19    20   ar
    23    20    21   ar
    24    21    22   ar
    25    22    23    1
    26     9    12    1
    27     6     1   ar
    28    22    13   ar
    29    12     4    1
    30    21    15   ar
@<TRIPOS>MOLECULE
*****
 27 30 0 0 0
SMALL
GASTEIGER

@<TRIPOS>ATOM
      1 C           3.2479   -1.6802   20.2339 C.ar    1  UNL1       -0.0065
      2 C           2.2180   -0.5927   20.1527 C.ar    1  UNL1       -0.0032
      3 C           1.8141    0.1517   21.3907 C.ar    1  UNL1       -0.0032
      4 C           2.4402   -0.1913   22.7099 C.ar    1  UNL1       -0.0062
      5 C           3.4701   -1.2788   22.7911 C.ar    1  UNL1       -0.0231
      6 C           3.8740   -2.0232   21.5531 C.ar    1  UNL1       -0.0074
      7 C           4.0962   -1.6218   24.1103 C.3     1  UNL1        0.0476
      8 C           3.6923   -0.8774   25.3484 C.3     1  UNL1        0.0987
      9 N           2.6624    0.2101   25.2671 N.am    1  UNL1       -0.2705
     10 C           2.2585    0.9546   26.5051 C.2     1  UNL1        0.2652
     11 O           1.2286    2.0420   26.4240 O.2     1  UNL1       -0.2683
     12 C           2.0363    0.5532   23.9479 C.3     1  UNL1        0.1202
     13 C           2.8846    0.6115   27.8244 C.ar    1  UNL1        0.1143
     14 C           2.2912   -0.2766   28.8776 C.ar    1  UNL1        0.0233
     15 C           3.2539   -0.3407   30.0261 C.ar    1  UNL1        0.0182
     16 C           3.2019   -1.0620   31.3403 C.ar    1  UNL1        0.0129
     17 C           4.3384   -0.9348   32.3111 C.ar    1  UNL1        0.0578
     18 CL          4.2864   -1.6561   33.6252 Cl      1  UNL1       -0.0822
     19 C           5.5267   -0.0864   31.9677 C.ar    1  UNL1        0.0129
     20 C           5.5787    0.6350   30.6535 C.ar    1  UNL1        0.0181
     21 C           4.4423    0.5078   29.6828 C.ar    1  UNL1        0.0601
     22 N           4.2140    1.0963   28.3220 N.ar    1  UNL1       -0.3216
     23 C           5.1508    2.0092   27.5878 C.3     1  UNL1        0.1306
     24 C           3.6518   -2.4246   18.9958 C.3     1  UNL1        0.0992
     25 C           3.9113   -0.9136   16.8984 C.3     1  UNL1        0.0899
     26 N           4.5254   -1.7609   17.9730 N.3     1  UNL1       -0.2665
     27 C           6.0133   -1.9445   18.0248 C.3     1  UNL1        0.0899
@<TRIPOS>BOND
     1    25    26    1
     2    26    27    1
     3    26    24    1
     4    24     1    1
     5     1     2   ar
     6     2     3   ar
     7     3     4   ar
     8     4     5   ar
     9     5     6   ar
    10     5     7    1
    11     7     8    1
    12     8     9    1
    13     9    10   am
    14    10    11    2
    15    10    13    1
    16    13    14   ar
    17    14    15   ar
    18    15    16   ar
    19    16    17   ar
    20    17    18    1
    21    17    19   ar
    22    19    20   ar
    23    20    21   ar
    24    21    22   ar
    25    22    23    1
    26     9    12    1
    27     6     1   ar
    28    22    13   ar
    29    12     4    1
    30    21    15   ar
@<TRIPOS>MOLECULE
*****
 27 30 0 0 0
SMALL
GASTEIGER

@<TRIPOS>ATOM
      1 C           7.7787   -4.0145   27.6770 C.ar    1  UNL1       -0.0065
      2 C           8.0935   -5.2466   26.8815 C.ar    1  UNL1       -0.0032
      3 C           7.6928   -5.3304   25.4385 C.ar    1  UNL1       -0.0032
      4 C           6.9773   -4.1820   24.7909 C.ar    1  UNL1       -0.0062
      5 C           6.6626   -2.9499   25.5863 C.ar    1  UNL1       -0.0231
      6 C           7.0633   -2.8662   27.0294 C.ar    1  UNL1       -0.0074
      7 C           5.9471   -1.8015   24.9388 C.3     1  UNL1        0.0476
      8 C           5.5465   -1.8852   23.4957 C.3     1  UNL1        0.0987
      9 N           5.8612   -3.1174   22.7002 N.am    1  UNL1       -0.2705
     10 C           5.4606   -3.2012   21.2571 C.2     1  UNL1        0.2652
     11 O           5.7753   -4.4332   20.4617 O.2     1  UNL1       -0.2683
     12 C           6.5767   -4.2658   23.3478 C.3     1  UNL1        0.1202
     13 C           4.7451   -2.0527   20.6096 C.ar    1  UNL1        0.1143
     14 C           3.2606   -1.9220   20.4392 C.ar    1  UNL1        0.0233
     15 C           2.9866   -0.6219   19.7431 C.ar    1  UNL1        0.0182
     16 C           1.7094    0.0363   19.3122 C.ar    1  UNL1        0.0129
     17 C           1.7475    1.3673   18.6214 C.ar    1  UNL1        0.0578
     18 CL          0.4703    2.0255   18.1906 Cl      1  UNL1       -0.0822
     19 C           3.0627    2.0400   18.3615 C.ar    1  UNL1        0.0129
     20 C           4.3399    1.3818   18.7923 C.ar    1  UNL1        0.0181
     21 C           4.3019    0.0509   19.4831 C.ar    1  UNL1        0.0601
     22 N           5.3886   -0.8334   20.0186 N.ar    1  UNL1       -0.3216
     23 C           6.8606   -0.5484   19.9715 C.3     1  UNL1        0.1306
     24 C           8.1794   -3.9308   29.1201 C.3     1  UNL1        0.0992
     25 C           6.9557   -5.7451   30.5203 C.3     1  UNL1        0.0899
     26 N           7.1993   -4.3016   30.1933 N.3     1  UNL1       -0.2665
     27 C           6.4628   -3.2289   30.9397 C.3     1  UNL1        0.0899
@<TRIPOS>BOND
     1    25    26    1
     2    26    27    1
     3    26    24    1
     4    24     1    1
     5     1     2   ar
     6     2     3   ar
     7     3     4   ar
     8     4     5   ar
     9     5     6   ar
    10     5     7    1
    11     7     8    1
    12     8     9    1
    13     9    10   am
    14    10    11    2
    15    10    13    1
    16    13    14   ar
    17    14    15   ar
    18    15    16   ar
    19    16    17   ar
    20    17    18    1
    21    17    19   ar
    22    19    20   ar
    23    20    21   ar
    24    21    22   ar
    25    22    23    1
    26     9    12    1
    27     6     1   ar
    28    22    13   ar
    29    12     4    1
    30    21    15   ar
@<TRIPOS>MOLECULE
*****
 27 30 0 0 0
SMALL
GASTEIGER

@<TRIPOS>ATOM
      1 C           4.3559    0.3836   35.5810 C.ar    1  UNL1       -0.0065
      2 C           4.7838   -0.9140   34.9621 C.ar    1  UNL1       -0.0032
      3 C           4.3949   -1.2355   33.5496 C.ar    1  UNL1       -0.0032
      4 C           3.5781   -0.2594   32.7559 C.ar    1  UNL1       -0.0062
      5 C           3.1502    1.0382   33.3748 C.ar    1  UNL1       -0.0231
      6 C           3.5391    1.3597   34.7874 C.ar    1  UNL1       -0.0074
      7 C           2.3333    2.0144   32.5811 C.3     1  UNL1        0.0476
      8 C           1.9443    1.6929   31.1685 C.3     1  UNL1        0.0987
      9 N           2.3723    0.3952   30.5496 N.am    1  UNL1       -0.2705
     10 C           1.9833    0.0737   29.1371 C.2     1  UNL1        0.2652
     11 O           2.4112   -1.2239   28.5182 O.2     1  UNL1       -0.2683
     12 C           3.1891   -0.5809   31.3433 C.3     1  UNL1        0.1202
     13 C           1.1665    1.0499   28.3434 C.ar    1  UNL1        0.1143
     14 C           1.7010    2.1949   27.5352 C.ar    1  UNL1        0.0233
     15 C           0.5365    2.9051   26.9109 C.ar    1  UNL1        0.0182
     16 C           0.4562    4.1035   26.0124 C.ar    1  UNL1        0.0129
     17 C          -0.8784    4.5958   25.5363 C.ar    1  UNL1        0.0578
     18 CL         -0.9587    5.7942   24.6378 Cl      1  UNL1       -0.0822
     19 C          -2.1325    3.8897   25.9587 C.ar    1  UNL1        0.0129
     20 C          -2.0522    2.6912   26.8572 C.ar    1  UNL1        0.0181
     21 C          -0.7177    2.1989   27.3333 C.ar    1  UNL1        0.0601
     22 N          -0.3283    1.0524   28.2186 N.ar    1  UNL1       -0.3216
     23 C          -1.2687    0.0792   28.8655 C.3     1  UNL1        0.1306
     24 C           4.7449    0.7051   36.9936 C.3     1  UNL1        0.0992
     25 C           2.6167    0.9610   38.4617 C.3     1  UNL1        0.0899
     26 N           3.8476    1.5550   37.8436 N.3     1  UNL1       -0.2665
     27 C           4.1812    2.9990   38.0756 C.3     1  UNL1        0.0899
@<TRIPOS>BOND
     1    25    26    1
     2    26    27    1
     3    26    24    1
     4    24     1    1
     5     1     2   ar
     6     2     3   ar
     7     3     4   ar
     8     4     5   ar
     9     5     6   ar
    10     5     7    1
    11     7     8    1
    12     8     9    1
    13     9    10   am
    14    10    11    2
    15    10    13    1
    16    13    14   ar
    17    14    15   ar
    18    15    16   ar
    19    16    17   ar
    20    17    18    1
    21    17    19   ar
    22    19    20   ar
    23    20    21   ar
    24    21    22   ar
    25    22    23    1
    26     9    12    1
    27     6     1   ar
    28    22    13   ar
    29    12     4    1
    30    21    15   ar
