@<TRIPOS>MOLECULE
*****
 32 35 0 0 0
SMALL
GASTEIGER

@<TRIPOS>ATOM
      1 O          -5.5254  -20.1714   19.8735 O.3     1  UNL1       -0.4754
      2 C          -9.6546  -18.5666   20.6636 C.ar    1  UNL1        0.0538
      3 C          -9.4340  -19.5590   19.5607 C.ar    1  UNL1        0.0076
      4 C          -8.0576  -20.0940   19.2974 C.ar    1  UNL1        0.0370
      5 C          -6.9018  -19.6364   20.1369 C.ar    1  UNL1        0.1386
      6 C          -7.1224  -18.6440   21.2398 C.ar    1  UNL1        0.0370
      7 C          -8.4988  -18.1091   21.5031 C.ar    1  UNL1        0.0076
      8 O         -11.7672  -17.2922   19.8493 O.2     1  UNL1       -0.2699
      9 C         -11.0310  -18.0316   20.9270 C.2     1  UNL1        0.2491
     10 N         -11.6713  -18.2362   22.2679 N.am    1  UNL1       -0.2732
     11 C         -10.9352  -18.9757   23.3455 C.3     1  UNL1        0.1108
     12 C         -11.5755  -19.1802   24.6865 C.3     1  UNL1        0.0904
     13 N         -12.9519  -18.6452   24.9499 N.3     1  UNL1       -0.2946
     14 C         -13.6880  -17.9058   23.8722 C.3     1  UNL1        0.0904
     15 C         -13.0477  -17.7012   22.5313 C.3     1  UNL1        0.1108
     16 H         -12.8736  -18.0087   25.7430 H       1  UNL1        0.1233
     17 C          -4.4074  -19.2308   19.5339 C.3     1  UNL1        0.2068
     18 C          -2.9876  -19.6167   19.8261 C.3     1  UNL1        0.0646
     19 C          -2.3096  -19.1023   21.0613 C.3     1  UNL1        0.0759
     20 N          -2.9992  -18.0925   21.9300 N.3     1  UNL1       -0.2726
     21 C          -2.7168  -16.6304   21.7497 C.3     1  UNL1        0.0721
     22 C          -3.4064  -15.6206   22.6184 C.3     1  UNL1        0.0178
     23 C          -4.3784  -16.0728   23.6675 C.3     1  UNL1        0.0087
     24 C          -4.6609  -17.5349   23.8479 C.3     1  UNL1        0.0178
     25 C          -3.9713  -18.5447   22.9791 C.3     1  UNL1        0.0721
     26 C          -5.0680  -15.0630   24.5362 C.3     1  UNL1        0.0453
     27 C          -6.4839  -15.2932   24.9749 C.ar    1  UNL1        0.0541
     28 C          -7.6561  -15.5458   24.0738 C.ar    1  UNL1        0.1131
     29 N          -8.8727  -15.7199   24.9337 N.ar    1  UNL1       -0.2229
     30 C          -8.4524  -15.5749   26.3664 C.ar    1  UNL1        0.1748
     31 N          -6.9760  -15.3112   26.3918 N.ar    1  UNL1       -0.3382
     32 H          -6.4265  -15.1740   27.1970 H       1  UNL1        0.1672
@<TRIPOS>BOND
     1     8     9    2
     2     9     2    1
     3     2     3   ar
     4     3     4   ar
     5     4     5   ar
     6     5     1    1
     7     1    17    1
     8    17    18    1
     9    18    19    1
    10    19    20    1
    11    20    21    1
    12    21    22    1
    13    22    23    1
    14    23    26    1
    15    26    27    1
    16    27    28   ar
    17    28    29   ar
    18    29    30   ar
    19    30    31   ar
    20    23    24    1
    21    24    25    1
    22     5     6   ar
    23     6     7   ar
    24     9    10   am
    25    10    11    1
    26    11    12    1
    27    12    13    1
    28    13    14    1
    29    14    15    1
    30     7     2   ar
    31    15    10    1
    32    25    20    1
    33    31    27   ar
    34    31    32    1
    35    13    16    1
@<TRIPOS>MOLECULE
*****
 32 35 0 0 0
SMALL
GASTEIGER

@<TRIPOS>ATOM
      1 O         -10.3138   -6.7806   18.9435 O.3     1  UNL1       -0.4754
      2 C         -14.5869   -7.2144   17.6009 C.ar    1  UNL1        0.0538
      3 C         -14.2797   -6.6311   18.9482 C.ar    1  UNL1        0.0076
      4 C         -12.8553   -6.4865   19.3957 C.ar    1  UNL1        0.0370
      5 C         -11.7382   -6.9252   18.4959 C.ar    1  UNL1        0.1386
      6 C         -12.0455   -7.5085   17.1486 C.ar    1  UNL1        0.0370
      7 C         -13.4698   -7.6531   16.7011 C.ar    1  UNL1        0.0076
      8 O         -16.6664   -6.2605   16.3696 O.2     1  UNL1       -0.2699
      9 C         -16.0113   -7.3590   17.1533 C.2     1  UNL1        0.2491
     10 N         -16.7805   -8.6021   17.4893 N.am    1  UNL1       -0.2732
     11 C         -16.1254   -9.7007   18.2730 C.3     1  UNL1        0.1108
     12 C         -16.8947  -10.9438   18.6090 C.3     1  UNL1        0.0904
     13 N         -18.3190  -11.0884   18.1614 N.3     1  UNL1       -0.2946
     14 C         -18.9741   -9.9899   17.3778 C.3     1  UNL1        0.0904
     15 C         -18.2049   -8.7468   17.0417 C.3     1  UNL1        0.1108
     16 H         -18.8796  -11.2247   19.0026 H       1  UNL1        0.1233
     17 C          -9.6470   -5.4377   18.9010 C.3     1  UNL1        0.2068
     18 C          -9.6708   -4.6281   17.6384 C.3     1  UNL1        0.0646
     19 C         -10.3879   -3.3110   17.6054 C.3     1  UNL1        0.0759
     20 N         -11.8417   -3.2394   17.9675 N.3     1  UNL1       -0.2726
     21 C         -12.2501   -2.8522   19.3580 C.3     1  UNL1        0.0721
     22 C         -13.7039   -2.7805   19.7201 C.3     1  UNL1        0.0178
     23 C         -14.7494   -3.0961   18.6919 C.3     1  UNL1        0.0087
     24 C         -14.3411   -3.4833   17.3015 C.3     1  UNL1        0.0178
     25 C         -12.8872   -3.5549   16.9392 C.3     1  UNL1        0.0721
     26 C         -16.2033   -3.0244   19.0540 C.3     1  UNL1        0.0453
     27 C         -16.8401   -1.6970   19.3413 C.ar    1  UNL1        0.0541
     28 C         -16.6221   -0.4291   18.5700 C.ar    1  UNL1        0.1131
     29 N         -17.4540    0.6470   19.2024 N.ar    1  UNL1       -0.2229
     30 C         -18.1863    0.0442   20.3645 C.ar    1  UNL1        0.1748
     31 N         -17.8068   -1.4045   20.4503 N.ar    1  UNL1       -0.3382
     32 H         -18.1347   -2.0500   21.1175 H       1  UNL1        0.1672
@<TRIPOS>BOND
     1     8     9    2
     2     9     2    1
     3     2     3   ar
     4     3     4   ar
     5     4     5   ar
     6     5     1    1
     7     1    17    1
     8    17    18    1
     9    18    19    1
    10    19    20    1
    11    20    21    1
    12    21    22    1
    13    22    23    1
    14    23    26    1
    15    26    27    1
    16    27    28   ar
    17    28    29   ar
    18    29    30   ar
    19    30    31   ar
    20    23    24    1
    21    24    25    1
    22     5     6   ar
    23     6     7   ar
    24     9    10   am
    25    10    11    1
    26    11    12    1
    27    12    13    1
    28    13    14    1
    29    14    15    1
    30     7     2   ar
    31    15    10    1
    32    25    20    1
    33    31    27   ar
    34    31    32    1
    35    13    16    1
@<TRIPOS>MOLECULE
*****
 32 35 0 0 0
SMALL
GASTEIGER

@<TRIPOS>ATOM
      1 O         -11.0138   -2.1963   18.4581 O.3     1  UNL1       -0.4754
      2 C         -15.4297   -2.6071   19.2204 C.ar    1  UNL1        0.0538
      3 C         -14.9416   -2.0859   17.9013 C.ar    1  UNL1        0.0076
      4 C         -13.4697   -1.9489   17.6472 C.ar    1  UNL1        0.0370
      5 C         -12.4858   -2.3332   18.7123 C.ar    1  UNL1        0.1386
      6 C         -12.9738   -2.8545   20.0313 C.ar    1  UNL1        0.0370
      7 C         -14.4458   -2.9915   20.2854 C.ar    1  UNL1        0.0076
      8 O         -17.5970   -4.0391   19.1757 O.2     1  UNL1       -0.2699
      9 C         -16.9017   -2.7441   19.4746 C.2     1  UNL1        0.2491
     10 N         -17.6782   -1.5861   20.0276 N.am    1  UNL1       -0.2732
     11 C         -16.9829   -0.2910   20.3264 C.3     1  UNL1        0.1108
     12 C         -17.7595    0.8670   20.8795 C.3     1  UNL1        0.0904
     13 N         -19.2314    0.7300   21.1336 N.3     1  UNL1       -0.2946
     14 C         -19.9268   -0.5650   20.8347 C.3     1  UNL1        0.0904
     15 C         -19.1502   -1.7230   20.2817 C.3     1  UNL1        0.1108
     16 H         -19.6945    1.4482   20.5767 H       1  UNL1        0.1233
     17 C         -10.4608   -2.4644   17.0898 C.3     1  UNL1        0.2068
     18 C          -9.5782   -3.6549   16.8576 C.3     1  UNL1        0.0646
     19 C         -10.1865   -4.9898   16.5446 C.3     1  UNL1        0.0759
     20 N         -11.4547   -5.4139   17.2240 N.3     1  UNL1       -0.2726
     21 C         -12.7633   -5.3186   16.4969 C.3     1  UNL1        0.0721
     22 C         -14.0315   -5.7427   17.1764 C.3     1  UNL1        0.0178
     23 C         -13.9912   -6.2622   18.5830 C.3     1  UNL1        0.0087
     24 C         -12.6827   -6.3576   19.3101 C.3     1  UNL1        0.0178
     25 C         -11.4144   -5.9334   18.6306 C.3     1  UNL1        0.0721
     26 C         -15.2594   -6.6863   19.2624 C.3     1  UNL1        0.0453
     27 C         -15.7376   -8.1030   19.1414 C.ar    1  UNL1        0.0541
     28 C         -15.0730   -9.1937   18.3549 C.ar    1  UNL1        0.1131
     29 N         -15.8889  -10.4424   18.5131 N.ar    1  UNL1       -0.2229
     30 C         -17.0578  -10.1234   19.3975 C.ar    1  UNL1        0.1748
     31 N         -16.9642   -8.6776   19.7858 N.ar    1  UNL1       -0.3382
     32 H         -17.5968   -8.1911   20.3623 H       1  UNL1        0.1672
@<TRIPOS>BOND
     1     8     9    2
     2     9     2    1
     3     2     3   ar
     4     3     4   ar
     5     4     5   ar
     6     5     1    1
     7     1    17    1
     8    17    18    1
     9    18    19    1
    10    19    20    1
    11    20    21    1
    12    21    22    1
    13    22    23    1
    14    23    26    1
    15    26    27    1
    16    27    28   ar
    17    28    29   ar
    18    29    30   ar
    19    30    31   ar
    20    23    24    1
    21    24    25    1
    22     5     6   ar
    23     6     7   ar
    24     9    10   am
    25    10    11    1
    26    11    12    1
    27    12    13    1
    28    13    14    1
    29    14    15    1
    30     7     2   ar
    31    15    10    1
    32    25    20    1
    33    31    27   ar
    34    31    32    1
    35    13    16    1
@<TRIPOS>MOLECULE
*****
 32 35 0 0 0
SMALL
GASTEIGER

@<TRIPOS>ATOM
      1 O         -16.4052  -10.1064   19.1756 O.3     1  UNL1       -0.4754
      2 C         -14.4427   -6.2313   18.0001 C.ar    1  UNL1        0.0538
      3 C         -14.4170   -7.4002   17.0605 C.ar    1  UNL1        0.0076
      4 C         -15.0711   -8.6919   17.4523 C.ar    1  UNL1        0.0370
      5 C         -15.7510   -8.8146   18.7837 C.ar    1  UNL1        0.1386
      6 C         -15.7767   -7.6457   19.7233 C.ar    1  UNL1        0.0370
      7 C         -15.1225   -6.3540   19.3315 C.ar    1  UNL1        0.0076
      8 O         -14.5327   -3.9478   16.7641 O.2     1  UNL1       -0.2699
      9 C         -13.7885   -4.9395   17.6082 C.2     1  UNL1        0.2491
     10 N         -12.3901   -4.6395   18.0606 N.am    1  UNL1       -0.2732
     11 C         -11.6459   -5.6313   18.9047 C.3     1  UNL1        0.1108
     12 C         -10.2475   -5.3312   19.3571 C.3     1  UNL1        0.0904
     13 N          -9.5934   -4.0395   18.9653 N.3     1  UNL1       -0.2946
     14 C         -10.3376   -3.0478   18.1211 C.3     1  UNL1        0.0904
     15 C         -11.7359   -3.3478   17.6687 C.3     1  UNL1        0.1108
     16 H          -8.7444   -4.2824   18.4547 H       1  UNL1        0.1233
     17 C         -17.4238  -10.7355   18.2720 C.3     1  UNL1        0.2068
     18 C         -18.8150  -10.1782   18.2071 C.3     1  UNL1        0.0646
     19 C         -19.1104   -8.9992   17.3281 C.3     1  UNL1        0.0759
     20 N         -18.9095   -7.6068   17.8484 N.3     1  UNL1       -0.2726
     21 C         -18.2043   -6.5856   17.0056 C.3     1  UNL1        0.0721
     22 C         -18.0034   -5.1932   17.5260 C.3     1  UNL1        0.0178
     23 C         -18.5076   -4.8219   18.8890 C.3     1  UNL1        0.0087
     24 C         -19.2128   -5.8429   19.7317 C.3     1  UNL1        0.0178
     25 C         -19.4137   -7.2354   19.2114 C.3     1  UNL1        0.0721
     26 C         -18.3068   -3.4294   19.4093 C.3     1  UNL1        0.0453
     27 C         -16.9259   -2.8480   19.4823 C.ar    1  UNL1        0.0541
     28 C         -16.3919   -1.7345   18.6308 C.ar    1  UNL1        0.1131
     29 N         -14.9727   -1.4763   19.0419 N.ar    1  UNL1       -0.2229
     30 C         -14.6295   -2.4302   20.1475 C.ar    1  UNL1        0.1748
     31 N         -15.8366   -3.2779   20.4197 N.ar    1  UNL1       -0.3382
     32 H         -15.9025   -3.9913   21.0950 H       1  UNL1        0.1672
@<TRIPOS>BOND
     1     8     9    2
     2     9     2    1
     3     2     3   ar
     4     3     4   ar
     5     4     5   ar
     6     5     1    1
     7     1    17    1
     8    17    18    1
     9    18    19    1
    10    19    20    1
    11    20    21    1
    12    21    22    1
    13    22    23    1
    14    23    26    1
    15    26    27    1
    16    27    28   ar
    17    28    29   ar
    18    29    30   ar
    19    30    31   ar
    20    23    24    1
    21    24    25    1
    22     5     6   ar
    23     6     7   ar
    24     9    10   am
    25    10    11    1
    26    11    12    1
    27    12    13    1
    28    13    14    1
    29    14    15    1
    30     7     2   ar
    31    15    10    1
    32    25    20    1
    33    31    27   ar
    34    31    32    1
    35    13    16    1
@<TRIPOS>MOLECULE
*****
 32 35 0 0 0
SMALL
GASTEIGER

@<TRIPOS>ATOM
      1 O          -2.6327  -16.6534   22.8544 O.3     1  UNL1       -0.4754
      2 C          -7.0220  -16.6428   23.8461 C.ar    1  UNL1        0.0538
      3 C          -6.4042  -17.8421   23.1905 C.ar    1  UNL1        0.0076
      4 C          -4.9411  -17.8456   22.8600 C.ar    1  UNL1        0.0370
      5 C          -4.0959  -16.6498   23.1849 C.ar    1  UNL1        0.1386
      6 C          -4.7138  -15.4505   23.8405 C.ar    1  UNL1        0.0370
      7 C          -6.1768  -15.4470   24.1711 C.ar    1  UNL1        0.0076
      8 O          -8.9381  -16.9230   25.5782 O.2     1  UNL1       -0.2699
      9 C          -8.4852  -16.6393   24.1766 C.2     1  UNL1        0.2491
     10 N          -9.4954  -16.3520   23.1057 N.am    1  UNL1       -0.2732
     11 C          -9.0425  -16.0683   21.7041 C.3     1  UNL1        0.1108
     12 C         -10.0528  -15.7810   20.6332 C.3     1  UNL1        0.0904
     13 N         -11.5158  -15.7775   20.9638 N.3     1  UNL1       -0.2946
     14 C         -11.9687  -16.0612   22.3653 C.3     1  UNL1        0.0904
     15 C         -10.9586  -16.3485   23.4363 C.3     1  UNL1        0.1108
     16 H         -11.9547  -16.4772   20.3652 H       1  UNL1        0.1233
     17 C          -2.1393  -15.9453   21.6275 C.3     1  UNL1        0.2068
     18 C          -0.9583  -16.4831   20.8751 C.3     1  UNL1        0.0646
     19 C          -1.1180  -17.6792   19.9841 C.3     1  UNL1        0.0759
     20 N          -2.3658  -18.5082   20.0581 N.3     1  UNL1       -0.2726
     21 C          -3.5730  -18.1198   19.2568 C.3     1  UNL1        0.0721
     22 C          -4.8208  -18.9489   19.3309 C.3     1  UNL1        0.0178
     23 C          -4.8616  -20.1663   20.2062 C.3     1  UNL1        0.0087
     24 C          -3.6545  -20.5547   21.0075 C.3     1  UNL1        0.0178
     25 C          -2.4066  -19.7256   20.9334 C.3     1  UNL1        0.0721
     26 C          -6.1095  -20.9954   20.2802 C.3     1  UNL1        0.0453
     27 C          -7.4540  -20.3308   20.2555 C.ar    1  UNL1        0.0541
     28 C          -8.2473  -19.9010   21.4538 C.ar    1  UNL1        0.1131
     29 N          -9.5249  -19.2839   20.9670 N.ar    1  UNL1       -0.2229
     30 C          -9.5212  -19.3324   19.4677 C.ar    1  UNL1        0.1748
     31 N          -8.2414  -19.9794   19.0280 N.ar    1  UNL1       -0.3382
     32 H          -7.9664  -20.1444   18.0972 H       1  UNL1        0.1672
@<TRIPOS>BOND
     1     8     9    2
     2     9     2    1
     3     2     3   ar
     4     3     4   ar
     5     4     5   ar
     6     5     1    1
     7     1    17    1
     8    17    18    1
     9    18    19    1
    10    19    20    1
    11    20    21    1
    12    21    22    1
    13    22    23    1
    14    23    26    1
    15    26    27    1
    16    27    28   ar
    17    28    29   ar
    18    29    30   ar
    19    30    31   ar
    20    23    24    1
    21    24    25    1
    22     5     6   ar
    23     6     7   ar
    24     9    10   am
    25    10    11    1
    26    11    12    1
    27    12    13    1
    28    13    14    1
    29    14    15    1
    30     7     2   ar
    31    15    10    1
    32    25    20    1
    33    31    27   ar
    34    31    32    1
    35    13    16    1
@<TRIPOS>MOLECULE
*****
 32 35 0 0 0
SMALL
GASTEIGER

@<TRIPOS>ATOM
      1 O          -4.6443  -19.0240   19.5838 O.3     1  UNL1       -0.4754
      2 C          -8.1791  -19.1831   22.3639 C.ar    1  UNL1        0.0538
      3 C          -7.3876  -17.9161   22.2290 C.ar    1  UNL1        0.0076
      4 C          -6.2093  -17.8631   21.3023 C.ar    1  UNL1        0.0370
      5 C          -5.8226  -19.0770   20.5105 C.ar    1  UNL1        0.1386
      6 C          -6.6142  -20.3440   20.6455 C.ar    1  UNL1        0.0370
      7 C          -7.7924  -20.3970   21.5722 C.ar    1  UNL1        0.0076
      8 O          -9.2292  -19.8999   24.6297 O.2     1  UNL1       -0.2699
      9 C          -9.3575  -19.2361   23.2907 C.2     1  UNL1        0.2491
     10 N         -10.6640  -18.6254   22.8784 N.am    1  UNL1       -0.2732
     11 C         -10.7923  -17.9617   21.5394 C.3     1  UNL1        0.1108
     12 C         -12.0989  -17.3510   21.1271 C.3     1  UNL1        0.0904
     13 N         -13.2771  -17.4041   22.0538 N.3     1  UNL1       -0.2946
     14 C         -13.1489  -18.0678   23.3928 C.3     1  UNL1        0.0904
     15 C         -11.8423  -18.6785   23.8051 C.3     1  UNL1        0.1108
     16 H         -14.0226  -17.8894   21.5548 H       1  UNL1        0.1233
     17 C          -3.4957  -19.9693   19.7761 C.3     1  UNL1        0.2068
     18 C          -2.7615  -20.0013   21.0839 C.3     1  UNL1        0.0646
     19 C          -2.1181  -18.7542   21.6135 C.3     1  UNL1        0.0759
     20 N          -2.9289  -17.7687   22.4018 N.3     1  UNL1       -0.2726
     21 C          -3.6402  -18.2084   23.6472 C.3     1  UNL1        0.0721
     22 C          -4.4510  -17.2230   24.4355 C.3     1  UNL1        0.0178
     23 C          -4.5505  -15.7977   23.9785 C.3     1  UNL1        0.0087
     24 C          -3.8392  -15.3580   22.7333 C.3     1  UNL1        0.0178
     25 C          -3.0284  -16.3435   21.9449 C.3     1  UNL1        0.0721
     26 C          -5.3612  -14.8123   24.7668 C.3     1  UNL1        0.0453
     27 C          -6.5549  -15.2771   25.5473 C.ar    1  UNL1        0.0541
     28 C          -7.8592  -15.7418   24.9703 C.ar    1  UNL1        0.1131
     29 N          -8.7642  -16.1107   26.1082 N.ar    1  UNL1       -0.2229
     30 C          -8.0193  -15.8739   27.3885 C.ar    1  UNL1        0.1748
     31 N          -6.6539  -15.3587   27.0418 N.ar    1  UNL1       -0.3382
     32 H          -5.9468  -15.1166   27.6826 H       1  UNL1        0.1672
@<TRIPOS>BOND
     1     8     9    2
     2     9     2    1
     3     2     3   ar
     4     3     4   ar
     5     4     5   ar
     6     5     1    1
     7     1    17    1
     8    17    18    1
     9    18    19    1
    10    19    20    1
    11    20    21    1
    12    21    22    1
    13    22    23    1
    14    23    26    1
    15    26    27    1
    16    27    28   ar
    17    28    29   ar
    18    29    30   ar
    19    30    31   ar
    20    23    24    1
    21    24    25    1
    22     5     6   ar
    23     6     7   ar
    24     9    10   am
    25    10    11    1
    26    11    12    1
    27    12    13    1
    28    13    14    1
    29    14    15    1
    30     7     2   ar
    31    15    10    1
    32    25    20    1
    33    31    27   ar
    34    31    32    1
    35    13    16    1
@<TRIPOS>MOLECULE
*****
 32 35 0 0 0
SMALL
GASTEIGER

@<TRIPOS>ATOM
      1 O         -10.9214   -2.9422   18.7198 O.3     1  UNL1       -0.4754
      2 C         -15.0962   -1.5133   19.6024 C.ar    1  UNL1        0.0538
      3 C         -14.2718   -0.8212   18.5577 C.ar    1  UNL1        0.0076
      4 C         -12.8803   -1.2975   18.2635 C.ar    1  UNL1        0.0370
      5 C         -12.3131   -2.4659   19.0140 C.ar    1  UNL1        0.1386
      6 C         -13.1375   -3.1580   20.0586 C.ar    1  UNL1        0.0370
      7 C         -14.5291   -2.6817   20.3528 C.ar    1  UNL1        0.0076
      8 O         -16.7008    0.1603   20.7747 O.2     1  UNL1       -0.2699
      9 C         -16.4879   -1.0370   19.8966 C.2     1  UNL1        0.2491
     10 N         -17.6665   -1.7580   19.3128 N.am    1  UNL1       -0.2732
     11 C         -17.4536   -2.9553   18.4347 C.3     1  UNL1        0.1108
     12 C         -18.6323   -3.6764   17.8508 C.3     1  UNL1        0.0904
     13 N         -20.0239   -3.2000   18.1451 N.3     1  UNL1       -0.2946
     14 C         -20.2368   -2.0027   19.0232 C.3     1  UNL1        0.0904
     15 C         -19.0582   -1.2817   19.6070 C.3     1  UNL1        0.1108
     16 H         -20.5148   -3.9786   18.5846 H       1  UNL1        0.1233
     17 C         -10.3866   -2.8767   17.3199 C.3     1  UNL1        0.2068
     18 C          -9.5434   -3.9966   16.7860 C.3     1  UNL1        0.0646
     19 C          -9.5269   -5.3228   17.4866 C.3     1  UNL1        0.0759
     20 N         -10.7732   -6.1554   17.5456 N.3     1  UNL1       -0.2726
     21 C         -11.3249   -6.7695   16.2931 C.3     1  UNL1        0.0721
     22 C         -12.5712   -7.6021   16.3521 C.3     1  UNL1        0.0178
     23 C         -13.2659   -7.8205   17.6634 C.3     1  UNL1        0.0087
     24 C         -12.7143   -7.2064   18.9158 C.3     1  UNL1        0.0178
     25 C         -11.4679   -6.3738   18.8569 C.3     1  UNL1        0.0721
     26 C         -14.5122   -8.6531   17.7224 C.3     1  UNL1        0.0453
     27 C         -15.6888   -8.1860   18.5271 C.ar    1  UNL1        0.0541
     28 C         -16.3968   -6.8726   18.3731 C.ar    1  UNL1        0.1131
     29 N         -17.5096   -6.8252   19.3778 N.ar    1  UNL1       -0.2229
     30 C         -17.4893   -8.1094   20.1528 C.ar    1  UNL1        0.1748
     31 N         -16.3640   -8.9504   19.6270 N.ar    1  UNL1       -0.3382
     32 H         -16.1127   -9.8466   19.9476 H       1  UNL1        0.1672
@<TRIPOS>BOND
     1     8     9    2
     2     9     2    1
     3     2     3   ar
     4     3     4   ar
     5     4     5   ar
     6     5     1    1
     7     1    17    1
     8    17    18    1
     9    18    19    1
    10    19    20    1
    11    20    21    1
    12    21    22    1
    13    22    23    1
    14    23    26    1
    15    26    27    1
    16    27    28   ar
    17    28    29   ar
    18    29    30   ar
    19    30    31   ar
    20    23    24    1
    21    24    25    1
    22     5     6   ar
    23     6     7   ar
    24     9    10   am
    25    10    11    1
    26    11    12    1
    27    12    13    1
    28    13    14    1
    29    14    15    1
    30     7     2   ar
    31    15    10    1
    32    25    20    1
    33    31    27   ar
    34    31    32    1
    35    13    16    1
@<TRIPOS>MOLECULE
*****
 32 35 0 0 0
SMALL
GASTEIGER

@<TRIPOS>ATOM
      1 O          -0.6713    1.5167   20.6856 O.3     1  UNL1       -0.4754
      2 C           2.8849   -0.2752   18.5899 C.ar    1  UNL1        0.0538
      3 C           2.4559    1.1268   18.2735 C.ar    1  UNL1        0.0076
      4 C           1.2705    1.7241   18.9720 C.ar    1  UNL1        0.0370
      5 C           0.5142    0.9193   19.9871 C.ar    1  UNL1        0.1386
      6 C           0.9432   -0.4827   20.3035 C.ar    1  UNL1        0.0370
      7 C           2.1286   -1.0800   19.6050 C.ar    1  UNL1        0.0076
      8 O           3.9894   -1.2100   16.4320 O.2     1  UNL1       -0.2699
      9 C           4.0704   -0.8726   17.8913 C.2     1  UNL1        0.2491
     10 N           5.3367   -1.1326   18.6521 N.am    1  UNL1       -0.2732
     11 C           5.4177   -0.7952   20.1114 C.3     1  UNL1        0.1108
     12 C           6.6841   -1.0552   20.8721 C.3     1  UNL1        0.0904
     13 N           7.8695   -1.6526   20.1736 N.3     1  UNL1       -0.2946
     14 C           7.7885   -1.9899   18.7142 C.3     1  UNL1        0.0904
     15 C           6.5222   -1.7299   17.9535 C.3     1  UNL1        0.1108
     16 H           8.0948   -2.5182   20.6638 H       1  UNL1        0.1233
     17 C          -0.9641    2.9813   20.5469 C.3     1  UNL1        0.2068
     18 C          -1.1870    3.8207   21.7700 C.3     1  UNL1        0.0646
     19 C          -0.1448    3.8676   22.8477 C.3     1  UNL1        0.0759
     20 N          -0.3727    3.1466   24.1431 N.3     1  UNL1       -0.2726
     21 C          -1.2065    3.7798   25.2173 C.3     1  UNL1        0.0721
     22 C          -1.4344    3.0588   26.5128 C.3     1  UNL1        0.0178
     23 C          -0.8284    1.7046   26.7341 C.3     1  UNL1        0.0087
     24 C           0.0054    1.0714   25.6600 C.3     1  UNL1        0.0178
     25 C           0.2333    1.7924   24.3645 C.3     1  UNL1        0.0721
     26 C          -1.0562    0.9837   28.0296 C.3     1  UNL1        0.0453
     27 C           0.1063    0.6511   28.9174 C.ar    1  UNL1        0.0541
     28 C           0.5366    1.4196   30.1316 C.ar    1  UNL1        0.1131
     29 N           1.7387    0.7351   30.7114 N.ar    1  UNL1       -0.2229
     30 C           2.0514   -0.4565   29.8556 C.ar    1  UNL1        0.1748
     31 N           1.0425   -0.5084   28.7468 N.ar    1  UNL1       -0.3382
     32 H           1.0019   -1.1847   28.0326 H       1  UNL1        0.1672
@<TRIPOS>BOND
     1     8     9    2
     2     9     2    1
     3     2     3   ar
     4     3     4   ar
     5     4     5   ar
     6     5     1    1
     7     1    17    1
     8    17    18    1
     9    18    19    1
    10    19    20    1
    11    20    21    1
    12    21    22    1
    13    22    23    1
    14    23    26    1
    15    26    27    1
    16    27    28   ar
    17    28    29   ar
    18    29    30   ar
    19    30    31   ar
    20    23    24    1
    21    24    25    1
    22     5     6   ar
    23     6     7   ar
    24     9    10   am
    25    10    11    1
    26    11    12    1
    27    12    13    1
    28    13    14    1
    29    14    15    1
    30     7     2   ar
    31    15    10    1
    32    25    20    1
    33    31    27   ar
    34    31    32    1
    35    13    16    1
@<TRIPOS>MOLECULE
*****
 32 35 0 0 0
SMALL
GASTEIGER

@<TRIPOS>ATOM
      1 O           1.3140    4.4642   19.1689 O.3     1  UNL1       -0.4754
      2 C           3.1008    0.4806   18.0791 C.ar    1  UNL1        0.0538
      3 C           3.9941    1.6561   18.3434 C.ar    1  UNL1        0.0076
      4 C           3.3986    2.9840   18.7067 C.ar    1  UNL1        0.0370
      5 C           1.9096    3.1363   18.8056 C.ar    1  UNL1        0.1386
      6 C           1.0162    1.9607   18.5414 C.ar    1  UNL1        0.0370
      7 C           1.6118    0.6329   18.1781 C.ar    1  UNL1        0.0076
      8 O           3.9267   -1.1973   16.2755 O.2     1  UNL1       -0.2699
      9 C           3.6964   -0.8474   17.7158 C.2     1  UNL1        0.2491
     10 N           4.0616   -1.8254   18.7929 N.am    1  UNL1       -0.2732
     11 C           3.8313   -1.4756   20.2332 C.3     1  UNL1        0.1108
     12 C           4.1966   -2.4537   21.3103 C.3     1  UNL1        0.0904
     13 N           4.7921   -3.7815   20.9470 N.3     1  UNL1       -0.2946
     14 C           5.0224   -4.1314   19.5066 C.3     1  UNL1        0.0904
     15 C           4.6572   -3.1534   18.4296 C.3     1  UNL1        0.1108
     16 H           4.1724   -4.4964   21.3281 H       1  UNL1        0.1233
     17 C           0.9410    4.7547   20.5925 C.3     1  UNL1        0.2068
     18 C           1.1023    3.6946   21.6414 C.3     1  UNL1        0.0646
     19 C          -0.0721    2.8527   22.0436 C.3     1  UNL1        0.0759
     20 N          -0.2776    2.4917   23.4849 N.3     1  UNL1       -0.2726
     21 C           0.5113    1.3726   24.0976 C.3     1  UNL1        0.0721
     22 C           0.3059    1.0116   25.5389 C.3     1  UNL1        0.0178
     23 C          -0.6884    1.7697   26.3676 C.3     1  UNL1        0.0087
     24 C          -1.4772    2.8888   25.7550 C.3     1  UNL1        0.0178
     25 C          -1.2718    3.2498   24.3136 C.3     1  UNL1        0.0721
     26 C          -0.8938    1.4087   27.8089 C.3     1  UNL1        0.0453
     27 C           0.2673    0.9484   28.6397 C.ar    1  UNL1        0.0541
     28 C           1.1405    1.8191   29.4937 C.ar    1  UNL1        0.1131
     29 N           2.1718    0.9454   30.1441 N.ar    1  UNL1       -0.2229
     30 C           1.9360   -0.4653   29.6920 C.ar    1  UNL1        0.1748
     31 N           0.7590   -0.4634   28.7622 N.ar    1  UNL1       -0.3382
     32 H           0.3763   -1.2506   28.3115 H       1  UNL1        0.1672
@<TRIPOS>BOND
     1     8     9    2
     2     9     2    1
     3     2     3   ar
     4     3     4   ar
     5     4     5   ar
     6     5     1    1
     7     1    17    1
     8    17    18    1
     9    18    19    1
    10    19    20    1
    11    20    21    1
    12    21    22    1
    13    22    23    1
    14    23    26    1
    15    26    27    1
    16    27    28   ar
    17    28    29   ar
    18    29    30   ar
    19    30    31   ar
    20    23    24    1
    21    24    25    1
    22     5     6   ar
    23     6     7   ar
    24     9    10   am
    25    10    11    1
    26    11    12    1
    27    12    13    1
    28    13    14    1
    29    14    15    1
    30     7     2   ar
    31    15    10    1
    32    25    20    1
    33    31    27   ar
    34    31    32    1
    35    13    16    1
