@<TRIPOS>MOLECULE
*****
 29 32 0 0 0
SMALL
GASTEIGER

@<TRIPOS>ATOM
      1 C           4.4083   -1.9503   20.2371 C.2     1  UNL1        0.0918
      2 C           5.5550   -2.3505   19.3569 C.2     1  UNL1        0.0183
      3 C           6.6410   -3.2341   19.8954 C.2     1  UNL1        0.0511
      4 C           6.5802   -3.7175   21.3141 C.2     1  UNL1        0.2322
      5 N           7.4974   -4.5917   22.1167 N.2     1  UNL1       -0.0308
      6 C           6.9176   -4.7319   23.4930 C.2     1  UNL1        0.3767
      7 N           5.6419   -3.9442   23.5409 N.2     1  UNL1       -0.0346
      8 C           5.4334   -3.3173   22.1942 C.2     1  UNL1        0.2191
      9 C           4.3475   -2.4337   21.6557 C.3     1  UNL1        0.1226
     10 C           7.5095   -5.5211   24.6230 C.ar    1  UNL1        0.1061
     11 C           8.1265   -6.8625   24.3585 C.ar    1  UNL1        0.0141
     12 C           8.7184   -7.6517   25.4884 C.ar    1  UNL1        0.0614
     13 C           8.6932   -7.0996   26.8828 C.ar    1  UNL1        0.2648
     14 O           9.2852   -7.8889   28.0128 O.2     1  UNL1       -0.2666
     15 N           8.0762   -5.7582   27.1473 N.ar    1  UNL1       -0.2729
     16 C           7.4843   -4.9690   26.0174 C.ar    1  UNL1        0.0906
     17 C           8.0511   -5.2061   28.5419 C.ar    1  UNL1        0.0669
     18 C           6.9737   -5.6282   29.4963 C.ar    1  UNL1        0.0176
     19 C           6.9487   -5.0761   30.8908 C.ar    1  UNL1        0.0015
     20 C           8.0009   -4.1019   31.3307 C.ar    1  UNL1        0.0001
     21 C           9.0783   -3.6797   30.3762 C.ar    1  UNL1        0.0015
     22 C           9.1034   -4.2318   28.9818 C.ar    1  UNL1        0.0176
     23 S           3.3223   -1.0668   19.6986 S.O2    1  UNL1        0.0022
     24 O           4.0621   -0.9496   18.3990 O.2     1  UNL1       -0.1690
     25 O           2.5825   -1.1839   20.9982 O.2     1  UNL1       -0.1690
     26 C           1.2945   -0.7040   20.2050 C.3     1  UNL1        0.0240
     27 C           2.2363   -0.1832   19.1601 C.3     1  UNL1        0.1147
     28 C           3.1782    0.3376   18.1152 C.3     1  UNL1        0.0240
     29 C           1.1504    0.7004   18.6216 C.3     1  UNL1        0.0240
@<TRIPOS>BOND
     1    26    27    1
     2    27    28    1
     3    27    29    1
     4    27    23    1
     5    23    24    2
     6    23    25    2
     7    23     1    1
     8     1     2    2
     9     2     3    1
    10     3     4    2
    11     4     5    1
    12     5     6    2
    13     6    10    1
    14    10    11   ar
    15    11    12   ar
    16    12    13   ar
    17    13    14    2
    18    13    15   ar
    19    15    17    1
    20    17    18   ar
    21    18    19   ar
    22    19    20   ar
    23    20    21   ar
    24    21    22   ar
    25    15    16   ar
    26     6     7    1
    27     7     8    2
    28     8     9    1
    29     9     1    1
    30     8     4    1
    31    16    10   ar
    32    22    17   ar
@<TRIPOS>MOLECULE
*****
 29 32 0 0 0
SMALL
GASTEIGER

@<TRIPOS>ATOM
      1 C           7.2760   -4.8315   26.7342 C.2     1  UNL1        0.0918
      2 C           8.0836   -5.8591   25.9983 C.2     1  UNL1        0.0183
      3 C           8.0748   -5.8868   24.4986 C.2     1  UNL1        0.0511
      4 C           7.2583   -4.8869   23.7347 C.2     1  UNL1        0.2322
      5 N           7.0547   -4.6706   22.2645 N.2     1  UNL1       -0.0308
      6 C           6.1212   -3.5093   22.0917 C.2     1  UNL1        0.3767
      7 N           5.7478   -3.0078   23.4552 N.2     1  UNL1       -0.0346
      8 C           6.4506   -3.8593   24.4706 C.2     1  UNL1        0.2191
      9 C           6.4595   -3.8316   25.9704 C.3     1  UNL1        0.1226
     10 C           5.6447   -2.9480   20.7848 C.ar    1  UNL1        0.1061
     11 C           6.3104   -3.3587   19.5048 C.ar    1  UNL1        0.0141
     12 C           5.8339   -2.7974   18.1980 C.ar    1  UNL1        0.0614
     13 C           4.6918   -1.8255   18.1710 C.ar    1  UNL1        0.2648
     14 O           4.2152   -1.2641   16.8641 O.2     1  UNL1       -0.2666
     15 N           4.0261   -1.4148   19.4509 N.ar    1  UNL1       -0.2729
     16 C           4.5025   -1.9760   20.7578 C.ar    1  UNL1        0.0906
     17 C           2.8838   -0.4428   19.4239 C.ar    1  UNL1        0.0669
     18 C           3.0212    0.8556   18.6856 C.ar    1  UNL1        0.0176
     19 C           1.8791    1.8275   18.6586 C.ar    1  UNL1        0.0015
     20 C           0.5995    1.5010   19.3700 C.ar    1  UNL1        0.0001
     21 C           0.4621    0.2026   20.1084 C.ar    1  UNL1        0.0015
     22 C           1.6043   -0.7693   20.1353 C.ar    1  UNL1        0.0176
     23 S           7.2848   -4.8038   28.2339 S.O2    1  UNL1        0.0022
     24 O           8.6803   -4.2542   28.2155 O.2     1  UNL1       -0.1690
     25 O           5.8892   -5.3534   28.2522 O.2     1  UNL1       -0.1690
     26 C           7.8698   -6.1608   29.7558 C.3     1  UNL1        0.0240
     27 C           7.2936   -4.7761   29.7336 C.3     1  UNL1        0.1147
     28 C           6.7174   -3.3914   29.7114 C.3     1  UNL1        0.0240
     29 C           7.3024   -4.7484   31.2333 C.3     1  UNL1        0.0240
@<TRIPOS>BOND
     1    26    27    1
     2    27    28    1
     3    27    29    1
     4    27    23    1
     5    23    24    2
     6    23    25    2
     7    23     1    1
     8     1     2    2
     9     2     3    1
    10     3     4    2
    11     4     5    1
    12     5     6    2
    13     6    10    1
    14    10    11   ar
    15    11    12   ar
    16    12    13   ar
    17    13    14    2
    18    13    15   ar
    19    15    17    1
    20    17    18   ar
    21    18    19   ar
    22    19    20   ar
    23    20    21   ar
    24    21    22   ar
    25    15    16   ar
    26     6     7    1
    27     7     8    2
    28     8     9    1
    29     9     1    1
    30     8     4    1
    31    16    10   ar
    32    22    17   ar
@<TRIPOS>MOLECULE
*****
 29 32 0 0 0
SMALL
GASTEIGER

@<TRIPOS>ATOM
      1 C           2.8535   -0.5224   19.0630 C.2     1  UNL1        0.0918
      2 C           3.3497    0.7431   18.4288 C.2     1  UNL1        0.0183
      3 C           2.5548    2.0086   18.5582 C.2     1  UNL1        0.0511
      4 C           1.2638    2.0086   19.3220 C.2     1  UNL1        0.2322
      5 N           0.2718    3.0945   19.6164 N.2     1  UNL1       -0.0308
      6 C          -0.8375    2.5001   20.4327 C.2     1  UNL1        0.3767
      7 N          -0.5310    1.0469   20.6427 N.2     1  UNL1       -0.0346
      8 C           0.7677    0.7431   19.9562 C.2     1  UNL1        0.2191
      9 C           1.5626   -0.5224   19.8267 C.3     1  UNL1        0.1226
     10 C          -2.0418    3.2308   20.9484 C.ar    1  UNL1        0.1061
     11 C          -3.1643    3.5783   20.0161 C.ar    1  UNL1        0.0141
     12 C          -4.3685    4.3090   20.5318 C.ar    1  UNL1        0.0614
     13 C          -4.4503    4.6920   21.9797 C.ar    1  UNL1        0.2648
     14 O          -5.6546    5.4227   22.4954 O.2     1  UNL1       -0.2666
     15 N          -3.3278    4.3444   22.9120 N.ar    1  UNL1       -0.2729
     16 C          -2.1235    3.6138   22.3964 C.ar    1  UNL1        0.0906
     17 C          -3.4096    4.7275   24.3600 C.ar    1  UNL1        0.0669
     18 C          -2.7533    5.9878   24.8406 C.ar    1  UNL1        0.0176
     19 C          -2.8351    6.3708   26.2885 C.ar    1  UNL1        0.0015
     20 C          -3.5732    5.4936   27.2558 C.ar    1  UNL1        0.0001
     21 C          -4.2294    4.2333   26.7752 C.ar    1  UNL1        0.0015
     22 C          -4.1476    3.8503   25.3273 C.ar    1  UNL1        0.0176
     23 S           3.6484   -1.7878   18.9335 S.O2    1  UNL1        0.0022
     24 O           3.3446   -2.1249   20.3633 O.2     1  UNL1       -0.1690
     25 O           3.9522   -1.4507   17.5038 O.2     1  UNL1       -0.1690
     26 C           5.5866   -2.2757   18.2227 C.3     1  UNL1        0.0240
     27 C           4.4432   -3.0533   18.8041 C.3     1  UNL1        0.1147
     28 C           3.2999   -3.8310   19.3854 C.3     1  UNL1        0.0240
     29 C           5.2381   -4.3188   18.6746 C.3     1  UNL1        0.0240
@<TRIPOS>BOND
     1    26    27    1
     2    27    28    1
     3    27    29    1
     4    27    23    1
     5    23    24    2
     6    23    25    2
     7    23     1    1
     8     1     2    2
     9     2     3    1
    10     3     4    2
    11     4     5    1
    12     5     6    2
    13     6    10    1
    14    10    11   ar
    15    11    12   ar
    16    12    13   ar
    17    13    14    2
    18    13    15   ar
    19    15    17    1
    20    17    18   ar
    21    18    19   ar
    22    19    20   ar
    23    20    21   ar
    24    21    22   ar
    25    15    16   ar
    26     6     7    1
    27     7     8    2
    28     8     9    1
    29     9     1    1
    30     8     4    1
    31    16    10   ar
    32    22    17   ar
@<TRIPOS>MOLECULE
*****
 29 32 0 0 0
SMALL
GASTEIGER

@<TRIPOS>ATOM
      1 C           7.3452   -4.9466   25.9410 C.2     1  UNL1        0.0918
      2 C           6.7729   -3.6950   26.5376 C.2     1  UNL1        0.0183
      3 C           6.1212   -2.6729   25.6540 C.2     1  UNL1        0.0511
      4 C           6.0419   -2.9024   24.1738 C.2     1  UNL1        0.2322
      5 N           5.4637   -2.0805   23.0602 N.2     1  UNL1       -0.0308
      6 C           5.6787   -2.8242   21.7753 C.2     1  UNL1        0.3767
      7 N           6.3898   -4.1057   22.0949 N.2     1  UNL1       -0.0346
      8 C           6.6142   -4.1540   23.5772 C.2     1  UNL1        0.2191
      9 C           7.2659   -5.1761   24.4608 C.3     1  UNL1        0.1226
     10 C           5.2566   -2.3665   20.4106 C.ar    1  UNL1        0.1061
     11 C           5.6836   -3.1364   19.1961 C.ar    1  UNL1        0.0141
     12 C           5.2616   -2.6789   17.8314 C.ar    1  UNL1        0.0614
     13 C           4.4127   -1.4514   17.6811 C.ar    1  UNL1        0.2648
     14 O           3.9906   -0.9938   16.3163 O.2     1  UNL1       -0.2666
     15 N           3.9857   -0.6815   18.8956 N.ar    1  UNL1       -0.2729
     16 C           4.4077   -1.1391   20.2603 C.ar    1  UNL1        0.0906
     17 C           3.1367    0.5460   18.7453 C.ar    1  UNL1        0.0669
     18 C           3.7804    1.8989   18.6731 C.ar    1  UNL1        0.0176
     19 C           2.9315    3.1263   18.5228 C.ar    1  UNL1        0.0015
     20 C           1.4388    3.0008   18.4447 C.ar    1  UNL1        0.0001
     21 C           0.7950    1.6479   18.5169 C.ar    1  UNL1        0.0015
     22 C           1.6440    0.4205   18.6672 C.ar    1  UNL1        0.0176
     23 S           7.9968   -5.9686   26.8246 S.O2    1  UNL1        0.0022
     24 O           7.1109   -5.5513   27.9608 O.2     1  UNL1       -0.1690
     25 O           8.8828   -6.3860   25.6885 O.2     1  UNL1       -0.1690
     26 C           8.3387   -8.0586   26.7014 C.3     1  UNL1        0.0240
     27 C           8.6485   -6.9907   27.7082 C.3     1  UNL1        0.1147
     28 C           8.9582   -5.9228   28.7150 C.3     1  UNL1        0.0240
     29 C           9.3001   -8.0128   28.5918 C.3     1  UNL1        0.0240
@<TRIPOS>BOND
     1    26    27    1
     2    27    28    1
     3    27    29    1
     4    27    23    1
     5    23    24    2
     6    23    25    2
     7    23     1    1
     8     1     2    2
     9     2     3    1
    10     3     4    2
    11     4     5    1
    12     5     6    2
    13     6    10    1
    14    10    11   ar
    15    11    12   ar
    16    12    13   ar
    17    13    14    2
    18    13    15   ar
    19    15    17    1
    20    17    18   ar
    21    18    19   ar
    22    19    20   ar
    23    20    21   ar
    24    21    22   ar
    25    15    16   ar
    26     6     7    1
    27     7     8    2
    28     8     9    1
    29     9     1    1
    30     8     4    1
    31    16    10   ar
    32    22    17   ar
@<TRIPOS>MOLECULE
*****
 29 32 0 0 0
SMALL
GASTEIGER

@<TRIPOS>ATOM
      1 C           2.9538   -0.8920   19.0211 C.2     1  UNL1        0.0918
      2 C           3.4332    0.3152   18.2710 C.2     1  UNL1        0.0183
      3 C           2.6910    1.6136   18.3867 C.2     1  UNL1        0.0511
      4 C           1.4695    1.7047   19.2524 C.2     1  UNL1        0.2322
      5 N           0.5393    2.8407   19.5595 N.2     1  UNL1       -0.0308
      6 C          -0.5149    2.3355   20.4995 C.2     1  UNL1        0.3767
      7 N          -0.2363    0.8873   20.7733 N.2     1  UNL1       -0.0346
      8 C           0.9901    0.4974   20.0025 C.2     1  UNL1        0.2191
      9 C           1.7323   -0.8009   19.8869 C.3     1  UNL1        0.1226
     10 C          -1.6487    3.1377   21.0661 C.ar    1  UNL1        0.1061
     11 C          -1.6460    3.5192   22.5168 C.ar    1  UNL1        0.0141
     12 C          -2.7797    4.3214   23.0834 C.ar    1  UNL1        0.0614
     13 C          -3.9161    4.7421   22.1994 C.ar    1  UNL1        0.2648
     14 O          -5.0499    5.5444   22.7660 O.2     1  UNL1       -0.2666
     15 N          -3.9188    4.3606   20.7487 N.ar    1  UNL1       -0.2729
     16 C          -2.7851    3.5584   20.1821 C.ar    1  UNL1        0.0906
     17 C          -5.0553    4.7814   19.8647 C.ar    1  UNL1        0.0669
     18 C          -5.0457    6.1383   19.2255 C.ar    1  UNL1        0.0176
     19 C          -6.1822    6.5589   18.3415 C.ar    1  UNL1        0.0015
     20 C          -7.3282    5.6227   18.0967 C.ar    1  UNL1        0.0001
     21 C          -7.3378    4.2657   18.7359 C.ar    1  UNL1        0.0015
     22 C          -6.2014    3.8451   19.6199 C.ar    1  UNL1        0.0176
     23 S           3.6960   -2.1904   18.9055 S.O2    1  UNL1        0.0022
     24 O           3.1463   -2.6229   20.2324 O.2     1  UNL1       -0.1690
     25 O           4.2458   -1.7580   17.5785 O.2     1  UNL1       -0.1690
     26 C           5.6321   -2.7583   18.2503 C.3     1  UNL1        0.0240
     27 C           4.4382   -3.4888   18.7898 C.3     1  UNL1        0.1147
     28 C           3.2444   -4.2193   19.3293 C.3     1  UNL1        0.0240
     29 C           5.1804   -4.7872   18.6742 C.3     1  UNL1        0.0240
@<TRIPOS>BOND
     1    26    27    1
     2    27    28    1
     3    27    29    1
     4    27    23    1
     5    23    24    2
     6    23    25    2
     7    23     1    1
     8     1     2    2
     9     2     3    1
    10     3     4    2
    11     4     5    1
    12     5     6    2
    13     6    10    1
    14    10    11   ar
    15    11    12   ar
    16    12    13   ar
    17    13    14    2
    18    13    15   ar
    19    15    17    1
    20    17    18   ar
    21    18    19   ar
    22    19    20   ar
    23    20    21   ar
    24    21    22   ar
    25    15    16   ar
    26     6     7    1
    27     7     8    2
    28     8     9    1
    29     9     1    1
    30     8     4    1
    31    16    10   ar
    32    22    17   ar
@<TRIPOS>MOLECULE
*****
 29 32 0 0 0
SMALL
GASTEIGER

@<TRIPOS>ATOM
      1 C           1.5379    1.0220   29.1238 C.2     1  UNL1        0.0918
      2 C           0.1330    1.5390   29.0288 C.2     1  UNL1        0.0183
      3 C          -0.5060    1.7316   27.6855 C.2     1  UNL1        0.0511
      4 C           0.2598    1.4073   26.4372 C.2     1  UNL1        0.2322
      5 N          -0.1046    1.4948   24.9848 N.2     1  UNL1       -0.0308
      6 C           1.0750    1.0319   24.1821 C.2     1  UNL1        0.3767
      7 N           2.1685    0.6583   25.1385 N.2     1  UNL1       -0.0346
      8 C           1.6647    0.8904   26.5322 C.2     1  UNL1        0.2191
      9 C           2.3037    0.6977   27.8755 C.3     1  UNL1        0.1226
     10 C           1.1482    0.9559   22.6858 C.ar    1  UNL1        0.1061
     11 C           0.1807    1.7371   21.8470 C.ar    1  UNL1        0.0141
     12 C           0.2539    1.6612   20.3507 C.ar    1  UNL1        0.0614
     13 C           1.2945    0.8039   19.6933 C.ar    1  UNL1        0.2648
     14 O           1.3677    0.7279   18.1970 O.2     1  UNL1       -0.2666
     15 N           2.2620    0.0227   20.5321 N.ar    1  UNL1       -0.2729
     16 C           2.1888    0.0987   22.0284 C.ar    1  UNL1        0.0906
     17 C           3.3027   -0.8346   19.8747 C.ar    1  UNL1        0.0669
     18 C           3.0639   -2.3055   19.7034 C.ar    1  UNL1        0.0176
     19 C           4.1045   -3.1626   19.0459 C.ar    1  UNL1        0.0015
     20 C           5.3839   -2.5489   18.5597 C.ar    1  UNL1        0.0001
     21 C           5.6227   -1.0780   18.7310 C.ar    1  UNL1        0.0015
     22 C           4.5821   -0.2208   19.3885 C.ar    1  UNL1        0.0176
     23 S           2.1769    0.8294   30.4672 S.O2    1  UNL1        0.0022
     24 O           2.5136    2.2903   30.5165 O.2     1  UNL1       -0.1690
     25 O           1.8402   -0.6315   30.4178 O.2     1  UNL1       -0.1690
     26 C           3.6563   -0.4729   31.2516 C.3     1  UNL1        0.0240
     27 C           2.8159    0.6367   31.8105 C.3     1  UNL1        0.1147
     28 C           1.9755    1.7464   32.3694 C.3     1  UNL1        0.0240
     29 C           3.4550    0.4441   33.1538 C.3     1  UNL1        0.0240
@<TRIPOS>BOND
     1    26    27    1
     2    27    28    1
     3    27    29    1
     4    27    23    1
     5    23    24    2
     6    23    25    2
     7    23     1    1
     8     1     2    2
     9     2     3    1
    10     3     4    2
    11     4     5    1
    12     5     6    2
    13     6    10    1
    14    10    11   ar
    15    11    12   ar
    16    12    13   ar
    17    13    14    2
    18    13    15   ar
    19    15    17    1
    20    17    18   ar
    21    18    19   ar
    22    19    20   ar
    23    20    21   ar
    24    21    22   ar
    25    15    16   ar
    26     6     7    1
    27     7     8    2
    28     8     9    1
    29     9     1    1
    30     8     4    1
    31    16    10   ar
    32    22    17   ar
@<TRIPOS>MOLECULE
*****
 29 32 0 0 0
SMALL
GASTEIGER

@<TRIPOS>ATOM
      1 C          -3.9190    4.0598   20.5363 C.2     1  UNL1        0.0918
      2 C          -3.8559    4.6629   19.1644 C.2     1  UNL1        0.0183
      3 C          -2.6379    4.4622   18.3122 C.2     1  UNL1        0.0511
      4 C          -1.4831    3.6584   18.8318 C.2     1  UNL1        0.2322
      5 N          -0.1607    3.2931   18.2253 N.2     1  UNL1       -0.0308
      6 C           0.5935    2.4642   19.2224 C.2     1  UNL1        0.3767
      7 N          -0.2628    2.3171   20.4451 N.2     1  UNL1       -0.0346
      8 C          -1.5462    3.0552   20.2037 C.2     1  UNL1        0.2191
      9 C          -2.7642    3.2559   21.0560 C.3     1  UNL1        0.1226
     10 C           1.9635    1.8842   19.0304 C.ar    1  UNL1        0.1061
     11 C           3.0504    2.7154   18.4157 C.ar    1  UNL1        0.0141
     12 C           4.4203    2.1354   18.2237 C.ar    1  UNL1        0.0614
     13 C           4.7033    0.7243   18.6463 C.ar    1  UNL1        0.2648
     14 O           6.0733    0.1443   18.4543 O.2     1  UNL1       -0.2666
     15 N           3.6164   -0.1068   19.2609 N.ar    1  UNL1       -0.2729
     16 C           2.2465    0.4731   19.4530 C.ar    1  UNL1        0.0906
     17 C           3.8995   -1.5180   19.6835 C.ar    1  UNL1        0.0669
     18 C           3.9033   -2.6194   18.6653 C.ar    1  UNL1        0.0176
     19 C           4.1864   -4.0305   19.0879 C.ar    1  UNL1        0.0015
     20 C           4.4656   -4.3402   20.5288 C.ar    1  UNL1        0.0001
     21 C           4.4618   -3.2388   21.5470 C.ar    1  UNL1        0.0015
     22 C           4.1788   -1.8277   21.1244 C.ar    1  UNL1        0.0176
     23 S          -5.1370    4.2605   21.3885 S.O2    1  UNL1        0.0022
     24 O          -5.4478    5.5263   20.6462 O.2     1  UNL1       -0.1690
     25 O          -4.8261    2.9946   22.1309 O.2     1  UNL1       -0.1690
     26 C          -7.0546    5.1158   21.0867 C.3     1  UNL1        0.0240
     27 C          -6.3549    4.4612   22.2408 C.3     1  UNL1        0.1147
     28 C          -5.6552    3.8066   23.3949 C.3     1  UNL1        0.0240
     29 C          -7.5729    4.6619   23.0930 C.3     1  UNL1        0.0240
@<TRIPOS>BOND
     1    26    27    1
     2    27    28    1
     3    27    29    1
     4    27    23    1
     5    23    24    2
     6    23    25    2
     7    23     1    1
     8     1     2    2
     9     2     3    1
    10     3     4    2
    11     4     5    1
    12     5     6    2
    13     6    10    1
    14    10    11   ar
    15    11    12   ar
    16    12    13   ar
    17    13    14    2
    18    13    15   ar
    19    15    17    1
    20    17    18   ar
    21    18    19   ar
    22    19    20   ar
    23    20    21   ar
    24    21    22   ar
    25    15    16   ar
    26     6     7    1
    27     7     8    2
    28     8     9    1
    29     9     1    1
    30     8     4    1
    31    16    10   ar
    32    22    17   ar
@<TRIPOS>MOLECULE
*****
 29 32 0 0 0
SMALL
GASTEIGER

@<TRIPOS>ATOM
      1 C          -4.5824    4.3776   23.7655 C.2     1  UNL1        0.0918
      2 C          -5.3454    4.0227   22.5238 C.2     1  UNL1        0.0183
      3 C          -4.6249    3.4529   21.3379 C.2     1  UNL1        0.0511
      4 C          -3.1415    3.2379   21.3938 C.2     1  UNL1        0.2322
      5 N          -2.1671    2.6973   20.3896 N.2     1  UNL1       -0.0308
      6 C          -0.8019    2.7181   21.0107 C.2     1  UNL1        0.3767
      7 N          -0.9325    3.2715   22.3987 N.2     1  UNL1       -0.0346
      8 C          -2.3785    3.5928   22.6354 C.2     1  UNL1        0.2191
      9 C          -3.0989    4.1627   23.8213 C.3     1  UNL1        0.1226
     10 C           0.4706    2.2649   20.3583 C.ar    1  UNL1        0.1061
     11 C           1.1027    3.1016   19.2857 C.ar    1  UNL1        0.0141
     12 C           2.3751    2.6485   18.6333 C.ar    1  UNL1        0.0614
     13 C           3.0153    1.3588   19.0534 C.ar    1  UNL1        0.2648
     14 O           4.2878    0.9056   18.4009 O.2     1  UNL1       -0.2666
     15 N           2.3832    0.5221   20.1259 N.ar    1  UNL1       -0.2729
     16 C           1.1108    0.9752   20.7784 C.ar    1  UNL1        0.0906
     17 C           3.0235   -0.7678   20.5460 C.ar    1  UNL1        0.0669
     18 C           3.1460   -1.8979   19.5674 C.ar    1  UNL1        0.0176
     19 C           3.7862   -3.1877   19.9875 C.ar    1  UNL1        0.0015
     20 C           4.3041   -3.3472   21.3862 C.ar    1  UNL1        0.0001
     21 C           4.1816   -2.2171   22.3648 C.ar    1  UNL1        0.0015
     22 C           3.5413   -0.9273   21.9447 C.ar    1  UNL1        0.0176
     23 S          -5.3028    4.9475   24.9513 S.O2    1  UNL1        0.0022
     24 O          -5.1330    3.6471   25.6794 O.2     1  UNL1       -0.1690
     25 O          -5.4725    6.2479   24.2232 O.2     1  UNL1       -0.1690
     26 C          -7.1490    5.9501   25.2453 C.3     1  UNL1        0.0240
     27 C          -6.0232    5.5173   26.1372 C.3     1  UNL1        0.1147
     28 C          -4.8975    5.0846   27.0290 C.3     1  UNL1        0.0240
     29 C          -6.7436    6.0872   27.3230 C.3     1  UNL1        0.0240
@<TRIPOS>BOND
     1    26    27    1
     2    27    28    1
     3    27    29    1
     4    27    23    1
     5    23    24    2
     6    23    25    2
     7    23     1    1
     8     1     2    2
     9     2     3    1
    10     3     4    2
    11     4     5    1
    12     5     6    2
    13     6    10    1
    14    10    11   ar
    15    11    12   ar
    16    12    13   ar
    17    13    14    2
    18    13    15   ar
    19    15    17    1
    20    17    18   ar
    21    18    19   ar
    22    19    20   ar
    23    20    21   ar
    24    21    22   ar
    25    15    16   ar
    26     6     7    1
    27     7     8    2
    28     8     9    1
    29     9     1    1
    30     8     4    1
    31    16    10   ar
    32    22    17   ar
@<TRIPOS>MOLECULE
*****
 29 32 0 0 0
SMALL
GASTEIGER

@<TRIPOS>ATOM
      1 C         -15.3300   -6.7768   19.2080 C.2     1  UNL1        0.0918
      2 C         -13.8586   -6.5461   19.3861 C.2     1  UNL1        0.0183
      3 C         -13.3333   -5.1514   19.5565 C.2     1  UNL1        0.0511
      4 C         -14.2794   -3.9875   19.5486 C.2     1  UNL1        0.2322
      5 N         -14.0558   -2.5113   19.6929 N.2     1  UNL1       -0.0308
      6 C         -15.3890   -1.8296   19.6039 C.2     1  UNL1        0.3767
      7 N         -16.4366   -2.8846   19.4047 N.2     1  UNL1       -0.0346
      8 C         -15.7508   -4.2182   19.3705 C.2     1  UNL1        0.2191
      9 C         -16.2760   -5.6129   19.2002 C.3     1  UNL1        0.1226
     10 C         -15.6320   -0.3524   19.6978 C.ar    1  UNL1        0.1061
     11 C         -14.8221    0.5953   18.8636 C.ar    1  UNL1        0.0141
     12 C         -15.0650    2.0725   18.9574 C.ar    1  UNL1        0.0614
     13 C         -16.1178    2.6020   19.8853 C.ar    1  UNL1        0.2648
     14 O         -16.3608    4.0793   19.9792 O.2     1  UNL1       -0.2666
     15 N         -16.9278    1.6543   20.7195 N.ar    1  UNL1       -0.2729
     16 C         -16.6848    0.1771   20.6257 C.ar    1  UNL1        0.0906
     17 C         -17.9806    2.1838   21.6475 C.ar    1  UNL1        0.0669
     18 C         -17.6766    2.3569   23.1061 C.ar    1  UNL1        0.0176
     19 C         -18.7294    2.8864   24.0340 C.ar    1  UNL1        0.0015
     20 C         -20.0864    3.2429   23.5033 C.ar    1  UNL1        0.0001
     21 C         -20.3905    3.0698   22.0447 C.ar    1  UNL1        0.0015
     22 C         -19.3376    2.5403   21.1168 C.ar    1  UNL1        0.0176
     23 S         -15.8552   -8.1715   19.0376 S.O2    1  UNL1        0.0022
     24 O         -17.2178   -7.7102   19.4627 O.2     1  UNL1       -0.1690
     25 O         -14.4927   -8.6327   18.6126 O.2     1  UNL1       -0.1690
     26 C         -15.2346   -9.8862   17.9539 C.3     1  UNL1        0.0240
     27 C         -16.3805   -9.5661   18.8673 C.3     1  UNL1        0.1147
     28 C         -17.5265   -9.2461   19.7807 C.3     1  UNL1        0.0240
     29 C         -16.9058  -10.9608   18.6970 C.3     1  UNL1        0.0240
@<TRIPOS>BOND
     1    26    27    1
     2    27    28    1
     3    27    29    1
     4    27    23    1
     5    23    24    2
     6    23    25    2
     7    23     1    1
     8     1     2    2
     9     2     3    1
    10     3     4    2
    11     4     5    1
    12     5     6    2
    13     6    10    1
    14    10    11   ar
    15    11    12   ar
    16    12    13   ar
    17    13    14    2
    18    13    15   ar
    19    15    17    1
    20    17    18   ar
    21    18    19   ar
    22    19    20   ar
    23    20    21   ar
    24    21    22   ar
    25    15    16   ar
    26     6     7    1
    27     7     8    2
    28     8     9    1
    29     9     1    1
    30     8     4    1
    31    16    10   ar
    32    22    17   ar
