@<TRIPOS>MOLECULE
*****
 31 34 0 0 0
SMALL
GASTEIGER

@<TRIPOS>ATOM
      1 C          -0.9766    2.7617   20.7439 C.ar    1  UNL1        0.2168
      2 N          -0.6259    3.5120   19.4933 N.ar    1  UNL1       -0.1210
      3 N           0.4611    2.7558   18.7885 N.ar    1  UNL1       -0.1393
      4 C           0.7822    1.5382   19.6036 C.ar    1  UNL1        0.1351
      5 S          -0.1064    1.5419   20.8121 S.2     1  UNL1       -0.0262
      6 C          -0.4009    3.8726   23.7579 C.3     1  UNL1        0.0520
      7 C          -1.7506    3.6718   23.1351 C.ar    1  UNL1        0.0615
      8 C          -3.0727    3.9464   23.7884 C.ar    1  UNL1        0.0228
      9 C          -4.1544    3.6055   22.8068 C.ar    1  UNL1        0.0789
     10 N          -3.5009    3.1202   21.5468 N.ar    1  UNL1       -0.1683
     11 N          -2.0153    3.1612   21.7497 N.ar    1  UNL1       -0.2100
     12 C          -5.5948    3.7809   23.1870 C.3     1  UNL1        0.0647
     13 C          -5.9533    4.2973   24.5488 C.3     1  UNL1        0.0788
     14 N          -4.8716    4.6382   25.5305 N.3     1  UNL1       -0.2682
     15 C          -3.4313    4.4627   25.1503 C.3     1  UNL1        0.1016
     16 C          -5.2303    5.1546   26.8924 C.3     1  UNL1        0.0783
     17 C          -6.0601    6.3966   27.0290 C.3     1  UNL1        0.0590
     18 C          -7.5305    6.2895   27.3063 C.2     1  UNL1        0.0517
     19 O          -8.0192    6.1479   28.7173 O.co2   1  UNL1       -0.5491
     20 O          -8.5119    6.3239   26.1725 O.co2   1  UNL1       -0.5491
     21 C           1.8112    0.4994   19.2690 C.ar    1  UNL1        0.0267
     22 C           1.8519   -0.7898   20.0347 C.ar    1  UNL1        0.0052
     23 C           2.8809   -1.8286   19.7001 C.ar    1  UNL1        0.0378
     24 C           3.8691   -1.5783   18.5998 C.ar    1  UNL1        0.1488
     25 C           3.8284   -0.2891   17.8341 C.ar    1  UNL1        0.0916
     26 CL          4.8166   -0.0387   16.7337 Cl      1  UNL1       -0.0791
     27 C           2.7994    0.7497   18.1687 C.ar    1  UNL1        0.0165
     28 O           4.8981   -2.6172   18.2651 O.3     1  UNL1       -0.4783
     29 C           5.1067   -3.7880   19.1793 C.3     1  UNL1        0.1662
     30 C           4.4045   -5.0855   18.9083 C.3     1  UNL1        0.0472
     31 C           6.0174   -3.6614   20.3644 C.3     1  UNL1        0.0472
@<TRIPOS>UNITY_ATOM_ATTR
19 1
charge -1
@<TRIPOS>BOND
     1     6     7    1
     2     7     8   ar
     3     8     9   ar
     4     9    10   ar
     5    10    11   ar
     6    11     1    1
     7     1     2   ar
     8     2     3   ar
     9     3     4   ar
    10     4    21    1
    11    21    22   ar
    12    22    23   ar
    13    23    24   ar
    14    24    28    1
    15    28    29    1
    16    29    30    1
    17    29    31    1
    18    24    25   ar
    19    25    26    1
    20    25    27   ar
    21     4     5   ar
    22     9    12    1
    23    12    13    1
    24    13    14    1
    25    14    16    1
    26    16    17    1
    27    17    18    1
    28    18    19   ar
    29    18    20   ar
    30    14    15    1
    31    11     7   ar
    32     5     1   ar
    33    15     8    1
    34    27    21   ar
@<TRIPOS>MOLECULE
*****
 31 34 0 0 0
SMALL
GASTEIGER

@<TRIPOS>ATOM
      1 C           6.6384   -3.5221   22.0112 C.ar    1  UNL1        0.2168
      2 N           7.5402   -3.0418   20.9130 N.ar    1  UNL1       -0.1210
      3 N           6.7348   -2.1627   20.0029 N.ar    1  UNL1       -0.1393
      4 C           5.3352   -2.0996   20.5385 C.ar    1  UNL1        0.1351
      5 S           5.2756   -2.9397   21.7798 S.2     1  UNL1       -0.0262
      6 C           6.2834   -2.8804   25.1911 C.3     1  UNL1        0.0520
      7 C           6.8673   -4.1310   24.6039 C.ar    1  UNL1        0.0615
      8 C           7.3906   -5.3063   25.3752 C.ar    1  UNL1        0.0228
      9 C           7.8773   -6.3276   24.3903 C.ar    1  UNL1        0.0789
     10 N           7.6547   -5.7835   23.0103 N.ar    1  UNL1       -0.1683
     11 N           7.0305   -4.4260   23.1422 N.ar    1  UNL1       -0.2100
     12 C           8.4602   -7.6210   24.8773 C.3     1  UNL1        0.0647
     13 C           8.5564   -7.8931   26.3492 C.3     1  UNL1        0.0788
     14 N           8.0698   -6.8718   27.3342 N.3     1  UNL1       -0.2682
     15 C           7.4869   -5.5784   26.8472 C.3     1  UNL1        0.1016
     16 C           8.1661   -7.1439   28.8062 C.3     1  UNL1        0.0783
     17 C           8.3625   -6.0093   29.7674 C.3     1  UNL1        0.0590
     18 C           7.2115   -5.5202   30.5957 C.2     1  UNL1        0.0517
     19 O           6.8276   -6.2478   31.8500 O.co2   1  UNL1       -0.5491
     20 O           6.4444   -4.3037   30.1697 O.co2   1  UNL1       -0.5491
     21 C           4.1952   -1.3312   19.9384 C.ar    1  UNL1        0.0267
     22 C           4.3636   -0.6543   18.6105 C.ar    1  UNL1        0.0052
     23 C           3.2237    0.1140   18.0104 C.ar    1  UNL1        0.0378
     24 C           1.9153    0.2054   18.7382 C.ar    1  UNL1        0.1488
     25 C           1.7469   -0.4715   20.0661 C.ar    1  UNL1        0.0916
     26 CL          0.4384   -0.3801   20.7941 Cl      1  UNL1       -0.0791
     27 C           2.8868   -1.2398   20.6663 C.ar    1  UNL1        0.0165
     28 O           0.7753    0.9737   18.1381 O.3     1  UNL1       -0.4783
     29 C           0.6417    2.4446   18.4003 C.3     1  UNL1        0.1662
     30 C          -0.4069    3.2421   17.6832 C.3     1  UNL1        0.0472
     31 C           1.5569    3.1180   19.3796 C.3     1  UNL1        0.0472
@<TRIPOS>UNITY_ATOM_ATTR
19 1
charge -1
@<TRIPOS>BOND
     1     6     7    1
     2     7     8   ar
     3     8     9   ar
     4     9    10   ar
     5    10    11   ar
     6    11     1    1
     7     1     2   ar
     8     2     3   ar
     9     3     4   ar
    10     4    21    1
    11    21    22   ar
    12    22    23   ar
    13    23    24   ar
    14    24    28    1
    15    28    29    1
    16    29    30    1
    17    29    31    1
    18    24    25   ar
    19    25    26    1
    20    25    27   ar
    21     4     5   ar
    22     9    12    1
    23    12    13    1
    24    13    14    1
    25    14    16    1
    26    16    17    1
    27    17    18    1
    28    18    19   ar
    29    18    20   ar
    30    14    15    1
    31    11     7   ar
    32     5     1   ar
    33    15     8    1
    34    27    21   ar
@<TRIPOS>MOLECULE
*****
 31 34 0 0 0
SMALL
GASTEIGER

@<TRIPOS>ATOM
      1 C           7.1541   -4.6150   25.1891 C.ar    1  UNL1        0.2168
      2 N           7.8761   -5.7274   24.4882 N.ar    1  UNL1       -0.1210
      3 N           7.6915   -5.5417   23.0112 N.ar    1  UNL1       -0.1393
      4 C           6.8553   -4.3146   22.7993 C.ar    1  UNL1        0.1351
      5 S           6.5232   -3.7419   24.1452 S.2     1  UNL1       -0.0262
      6 C           7.1909   -1.7417   26.7358 C.3     1  UNL1        0.0520
      7 C           7.0935   -3.0908   27.3841 C.ar    1  UNL1        0.0615
      8 C           6.9958   -3.3560   28.8573 C.ar    1  UNL1        0.0228
      9 C           6.9185   -4.8407   29.0568 C.ar    1  UNL1        0.0789
     10 N           6.9684   -5.4930   27.7070 N.ar    1  UNL1       -0.1683
     11 N           7.0765   -4.4115   26.6732 N.ar    1  UNL1       -0.2100
     12 C           6.8127   -5.4068   30.4418 C.3     1  UNL1        0.0647
     13 C           6.7841   -4.4882   31.6273 C.3     1  UNL1        0.0788
     14 N           6.8615   -3.0036   31.4277 N.3     1  UNL1       -0.2682
     15 C           6.9673   -2.4375   30.0427 C.3     1  UNL1        0.1016
     16 C           6.8329   -2.0850   32.6133 C.3     1  UNL1        0.0783
     17 C           5.6216   -1.2413   32.8794 C.3     1  UNL1        0.0590
     18 C           4.2517   -1.8451   32.7855 C.2     1  UNL1        0.0517
     19 O           3.2770   -1.3380   31.7642 O.co2   1  UNL1       -0.5491
     20 O           3.8564   -2.9558   33.7128 O.co2   1  UNL1       -0.5491
     21 C           6.4265   -3.7579   21.4740 C.ar    1  UNL1        0.0267
     22 C           7.4120   -3.0219   20.6154 C.ar    1  UNL1        0.0052
     23 C           6.9831   -2.4653   19.2903 C.ar    1  UNL1        0.0378
     24 C           5.5689   -2.6446   18.8236 C.ar    1  UNL1        0.1488
     25 C           4.5835   -3.3806   19.6822 C.ar    1  UNL1        0.0916
     26 CL          3.1692   -3.5601   19.2155 Cl      1  UNL1       -0.0791
     27 C           5.0123   -3.9373   21.0074 C.ar    1  UNL1        0.0165
     28 O           5.1401   -2.0880   17.4983 O.3     1  UNL1       -0.4783
     29 C           4.7365   -0.6477   17.3850 C.3     1  UNL1        0.1662
     30 C           5.7542    0.3892   17.0122 C.3     1  UNL1        0.0472
     31 C           3.3153   -0.2444   17.6445 C.3     1  UNL1        0.0472
@<TRIPOS>UNITY_ATOM_ATTR
19 1
charge -1
@<TRIPOS>BOND
     1     6     7    1
     2     7     8   ar
     3     8     9   ar
     4     9    10   ar
     5    10    11   ar
     6    11     1    1
     7     1     2   ar
     8     2     3   ar
     9     3     4   ar
    10     4    21    1
    11    21    22   ar
    12    22    23   ar
    13    23    24   ar
    14    24    28    1
    15    28    29    1
    16    29    30    1
    17    29    31    1
    18    24    25   ar
    19    25    26    1
    20    25    27   ar
    21     4     5   ar
    22     9    12    1
    23    12    13    1
    24    13    14    1
    25    14    16    1
    26    16    17    1
    27    17    18    1
    28    18    19   ar
    29    18    20   ar
    30    14    15    1
    31    11     7   ar
    32     5     1   ar
    33    15     8    1
    34    27    21   ar
@<TRIPOS>MOLECULE
*****
 31 34 0 0 0
SMALL
GASTEIGER

@<TRIPOS>ATOM
      1 C           6.6323   -4.2896   24.4484 C.ar    1  UNL1        0.2168
      2 N           7.4088   -5.0536   23.4172 N.ar    1  UNL1       -0.1210
      3 N           6.9945   -4.5577   22.0635 N.ar    1  UNL1       -0.1393
      4 C           5.9620   -3.4871   22.2581 C.ar    1  UNL1        0.1351
      5 S           5.7382   -3.3214   23.7320 S.2     1  UNL1       -0.0262
      6 C           5.8154   -2.0712   26.6981 C.3     1  UNL1        0.0520
      7 C           6.3569   -3.4436   26.9690 C.ar    1  UNL1        0.0615
      8 C           6.6180   -4.0372   28.3216 C.ar    1  UNL1        0.0228
      9 C           7.1549   -5.4237   28.1235 C.ar    1  UNL1        0.0789
     10 N           7.2256   -5.6870   26.6485 N.ar    1  UNL1       -0.1683
     11 N           6.7324   -4.4632   25.9350 N.ar    1  UNL1       -0.2100
     12 C           7.5100   -6.2674   29.3118 C.3     1  UNL1        0.0647
     13 C           7.3283   -5.7245   30.6982 C.3     1  UNL1        0.0788
     14 N           6.7914   -4.3379   30.8963 N.3     1  UNL1       -0.2682
     15 C           6.4362   -3.4943   29.7080 C.3     1  UNL1        0.1016
     16 C           6.6096   -3.7950   32.2828 C.3     1  UNL1        0.0783
     17 C           6.0318   -2.4252   32.4821 C.3     1  UNL1        0.0590
     18 C           4.5515   -2.2532   32.6531 C.2     1  UNL1        0.0517
     19 O           3.7871   -1.3630   31.7186 O.co2   1  UNL1       -0.5491
     20 O           3.8357   -2.9714   33.7583 O.co2   1  UNL1       -0.5491
     21 C           5.2742   -2.7174   21.1698 C.ar    1  UNL1        0.0267
     22 C           3.8081   -2.4179   21.2745 C.ar    1  UNL1        0.0052
     23 C           3.1203   -1.6482   20.1863 C.ar    1  UNL1        0.0378
     24 C           3.8985   -1.1779   18.9933 C.ar    1  UNL1        0.1488
     25 C           5.3645   -1.4773   18.8886 C.ar    1  UNL1        0.0916
     26 CL          6.1429   -1.0070   17.6956 Cl      1  UNL1       -0.0791
     27 C           6.0524   -2.2471   19.9769 C.ar    1  UNL1        0.0165
     28 O           3.2107   -0.4081   17.9050 O.3     1  UNL1       -0.4783
     29 C           2.5610    0.9084   18.2131 C.3     1  UNL1        0.1662
     30 C           3.4013    2.1411   18.3694 C.3     1  UNL1        0.0472
     31 C           1.0711    0.9922   18.3648 C.3     1  UNL1        0.0472
@<TRIPOS>UNITY_ATOM_ATTR
19 1
charge -1
@<TRIPOS>BOND
     1     6     7    1
     2     7     8   ar
     3     8     9   ar
     4     9    10   ar
     5    10    11   ar
     6    11     1    1
     7     1     2   ar
     8     2     3   ar
     9     3     4   ar
    10     4    21    1
    11    21    22   ar
    12    22    23   ar
    13    23    24   ar
    14    24    28    1
    15    28    29    1
    16    29    30    1
    17    29    31    1
    18    24    25   ar
    19    25    26    1
    20    25    27   ar
    21     4     5   ar
    22     9    12    1
    23    12    13    1
    24    13    14    1
    25    14    16    1
    26    16    17    1
    27    17    18    1
    28    18    19   ar
    29    18    20   ar
    30    14    15    1
    31    11     7   ar
    32     5     1   ar
    33    15     8    1
    34    27    21   ar
@<TRIPOS>MOLECULE
*****
 31 34 0 0 0
SMALL
GASTEIGER

@<TRIPOS>ATOM
      1 C          -0.8685    2.8777   20.5142 C.ar    1  UNL1        0.2168
      2 N          -0.2311    3.7838   19.5029 N.ar    1  UNL1       -0.1210
      3 N           0.9410    3.0618   18.9072 N.ar    1  UNL1       -0.1393
      4 C           1.0280    1.7095   19.5503 C.ar    1  UNL1        0.1351
      5 S          -0.0903    1.5957   20.5435 S.2     1  UNL1       -0.0262
      6 C          -3.8657    3.5177   19.3931 C.3     1  UNL1        0.0520
      7 C          -3.4503    3.4916   20.8342 C.ar    1  UNL1        0.0615
      8 C          -4.3397    3.7552   22.0131 C.ar    1  UNL1        0.0228
      9 C          -3.5117    3.6238   23.2569 C.ar    1  UNL1        0.0789
     10 N          -2.1106    3.2791   22.8468 N.ar    1  UNL1       -0.1683
     11 N          -2.0727    3.1974   21.3495 N.ar    1  UNL1       -0.2100
     12 C          -4.1405    3.8351   24.6022 C.3     1  UNL1        0.0647
     13 C          -5.5973    4.1776   24.7037 C.3     1  UNL1        0.0788
     14 N          -6.4253    4.3090   23.4598 N.3     1  UNL1       -0.2682
     15 C          -5.7965    4.0977   22.1145 C.3     1  UNL1        0.1016
     16 C          -7.8822    4.6515   23.5614 C.3     1  UNL1        0.0783
     17 C          -8.3017    6.0527   23.8941 C.3     1  UNL1        0.0590
     18 C          -9.3421    6.2940   24.9474 C.2     1  UNL1        0.0517
     19 O         -10.6852    5.6348   24.8398 O.co2   1  UNL1       -0.5491
     20 O          -9.0393    7.1944   26.1082 O.co2   1  UNL1       -0.5491
     21 C           2.0534    0.6559   19.2525 C.ar    1  UNL1        0.0267
     22 C           2.0069   -0.6602   19.9708 C.ar    1  UNL1        0.0052
     23 C           3.0322   -1.7136   19.6730 C.ar    1  UNL1        0.0378
     24 C           4.1040   -1.4512   18.6570 C.ar    1  UNL1        0.1488
     25 C           4.1505   -0.1352   17.9387 C.ar    1  UNL1        0.0916
     26 CL          5.2223    0.1273   16.9226 Cl      1  UNL1       -0.0791
     27 C           3.1252    0.9184   18.2365 C.ar    1  UNL1        0.0165
     28 O           5.1294   -2.5048   18.3591 O.3     1  UNL1       -0.4783
     29 C           5.2359   -3.7169   19.2364 C.3     1  UNL1        0.1662
     30 C           6.0874   -3.6769   20.4706 C.3     1  UNL1        0.0472
     31 C           4.4910   -4.9689   18.8794 C.3     1  UNL1        0.0472
@<TRIPOS>UNITY_ATOM_ATTR
19 1
charge -1
@<TRIPOS>BOND
     1     6     7    1
     2     7     8   ar
     3     8     9   ar
     4     9    10   ar
     5    10    11   ar
     6    11     1    1
     7     1     2   ar
     8     2     3   ar
     9     3     4   ar
    10     4    21    1
    11    21    22   ar
    12    22    23   ar
    13    23    24   ar
    14    24    28    1
    15    28    29    1
    16    29    30    1
    17    29    31    1
    18    24    25   ar
    19    25    26    1
    20    25    27   ar
    21     4     5   ar
    22     9    12    1
    23    12    13    1
    24    13    14    1
    25    14    16    1
    26    16    17    1
    27    17    18    1
    28    18    19   ar
    29    18    20   ar
    30    14    15    1
    31    11     7   ar
    32     5     1   ar
    33    15     8    1
    34    27    21   ar
@<TRIPOS>MOLECULE
*****
 31 34 0 0 0
SMALL
GASTEIGER

@<TRIPOS>ATOM
      1 C           6.9902   -4.4801   22.6677 C.ar    1  UNL1        0.2168
      2 N           7.7480   -4.5216   21.3739 N.ar    1  UNL1       -0.1210
      3 N           6.9866   -3.7145   20.3645 N.ar    1  UNL1       -0.1393
      4 C           5.7581   -3.1742   21.0346 C.ar    1  UNL1        0.1351
      5 S           5.7604   -3.6474   22.4580 S.2     1  UNL1       -0.0262
      6 C           7.5585   -2.9980   25.5190 C.3     1  UNL1        0.0520
      7 C           7.6530   -4.4720   25.2572 C.ar    1  UNL1        0.0615
      8 C           8.0252   -5.5235   26.2602 C.ar    1  UNL1        0.0228
      9 C           7.9940   -6.8546   25.5694 C.ar    1  UNL1        0.0789
     10 N           7.6025   -6.6257   24.1396 N.ar    1  UNL1       -0.1683
     11 N           7.3917   -5.1532   23.9466 N.ar    1  UNL1       -0.2100
     12 C           8.3262   -8.1030   26.3316 C.3     1  UNL1        0.0647
     13 C           8.6895   -8.0204   27.7846 C.3     1  UNL1        0.0788
     14 N           8.7206   -6.6892   28.4753 N.3     1  UNL1       -0.2682
     15 C           8.3885   -5.4408   27.7131 C.3     1  UNL1        0.1016
     16 C           9.0840   -6.6066   29.9284 C.3     1  UNL1        0.0783
     17 C           8.6843   -5.4064   30.7343 C.3     1  UNL1        0.0590
     18 C           7.2758   -5.2729   31.2328 C.2     1  UNL1        0.0517
     19 O           6.4755   -4.0485   30.9003 O.co2   1  UNL1       -0.5491
     20 O           6.6676   -6.3636   32.0637 O.co2   1  UNL1       -0.5491
     21 C           4.7112   -2.3121   20.3937 C.ar    1  UNL1        0.0267
     22 C           3.5820   -1.7664   21.2168 C.ar    1  UNL1        0.0052
     23 C           2.5352   -0.9044   20.5759 C.ar    1  UNL1        0.0378
     24 C           2.6174   -0.5879   19.1120 C.ar    1  UNL1        0.1488
     25 C           3.7464   -1.1334   18.2890 C.ar    1  UNL1        0.0916
     26 CL          3.8287   -0.8169   16.8249 Cl      1  UNL1       -0.0791
     27 C           4.7934   -1.9956   18.9298 C.ar    1  UNL1        0.0165
     28 O           1.5704    0.2743   18.4711 O.3     1  UNL1       -0.4783
     29 C           1.4304    1.7114   18.8777 C.3     1  UNL1        0.1662
     30 C           0.2150    2.1622   19.6323 C.3     1  UNL1        0.0472
     31 C           2.5057    2.6975   18.5296 C.3     1  UNL1        0.0472
@<TRIPOS>UNITY_ATOM_ATTR
19 1
charge -1
@<TRIPOS>BOND
     1     6     7    1
     2     7     8   ar
     3     8     9   ar
     4     9    10   ar
     5    10    11   ar
     6    11     1    1
     7     1     2   ar
     8     2     3   ar
     9     3     4   ar
    10     4    21    1
    11    21    22   ar
    12    22    23   ar
    13    23    24   ar
    14    24    28    1
    15    28    29    1
    16    29    30    1
    17    29    31    1
    18    24    25   ar
    19    25    26    1
    20    25    27   ar
    21     4     5   ar
    22     9    12    1
    23    12    13    1
    24    13    14    1
    25    14    16    1
    26    16    17    1
    27    17    18    1
    28    18    19   ar
    29    18    20   ar
    30    14    15    1
    31    11     7   ar
    32     5     1   ar
    33    15     8    1
    34    27    21   ar
@<TRIPOS>MOLECULE
*****
 31 34 0 0 0
SMALL
GASTEIGER

@<TRIPOS>ATOM
      1 C           2.7462   -0.0110   30.7897 C.ar    1  UNL1        0.2168
      2 N           1.3468   -0.1782   30.2762 N.ar    1  UNL1       -0.1210
      3 N           1.4215   -0.4232   28.7982 N.ar    1  UNL1       -0.1393
      4 C           2.8671   -0.4074   28.3983 C.ar    1  UNL1        0.1351
      5 S           3.6858   -0.1527   29.6291 S.2     1  UNL1       -0.0262
      6 C           1.8276    2.5514   32.5897 C.3     1  UNL1        0.0520
      7 C           2.7151    1.4295   33.0412 C.ar    1  UNL1        0.0615
      8 C           3.3361    1.2885   34.3993 C.ar    1  UNL1        0.0228
      9 C           4.1422    0.0236   34.4112 C.ar    1  UNL1        0.0789
     10 N           4.0193   -0.6172   33.0606 N.ar    1  UNL1       -0.1683
     11 N           3.1373    0.2517   32.2138 N.ar    1  UNL1       -0.2100
     12 C           4.8839   -0.3814   35.6505 C.3     1  UNL1        0.0647
     13 C           4.8196    0.4786   36.8777 C.3     1  UNL1        0.0788
     14 N           4.0135    1.7436   36.8658 N.3     1  UNL1       -0.2682
     15 C           3.2718    2.1485   35.6265 C.3     1  UNL1        0.1016
     16 C           3.9492    2.6036   38.0931 C.3     1  UNL1        0.0783
     17 C           2.6201    3.0396   38.6346 C.3     1  UNL1        0.0590
     18 C           1.6096    2.0147   39.0572 C.2     1  UNL1        0.0517
     19 O           2.0638    0.7123   39.6467 O.co2   1  UNL1       -0.5491
     20 O           0.1450    2.2921   38.8902 O.co2   1  UNL1       -0.5491
     21 C           3.4004   -0.6107   27.0111 C.ar    1  UNL1        0.0267
     22 C           4.5298   -1.5692   26.7747 C.ar    1  UNL1        0.0052
     23 C           5.0631   -1.7724   25.3876 C.ar    1  UNL1        0.0378
     24 C           4.4670   -1.0172   24.2368 C.ar    1  UNL1        0.1488
     25 C           3.3377   -0.0588   24.4731 C.ar    1  UNL1        0.0916
     26 CL          2.7415    0.6965   23.3223 Cl      1  UNL1       -0.0791
     27 C           2.8043    0.1445   25.8603 C.ar    1  UNL1        0.0165
     28 O           5.0003   -1.2205   22.8495 O.3     1  UNL1       -0.4783
     29 C           4.3822   -2.2512   21.9520 C.3     1  UNL1        0.1662
     30 C           3.5459   -1.8231   20.7827 C.3     1  UNL1        0.0472
     31 C           4.6005   -3.7102   22.2237 C.3     1  UNL1        0.0472
@<TRIPOS>UNITY_ATOM_ATTR
19 1
charge -1
@<TRIPOS>BOND
     1     6     7    1
     2     7     8   ar
     3     8     9   ar
     4     9    10   ar
     5    10    11   ar
     6    11     1    1
     7     1     2   ar
     8     2     3   ar
     9     3     4   ar
    10     4    21    1
    11    21    22   ar
    12    22    23   ar
    13    23    24   ar
    14    24    28    1
    15    28    29    1
    16    29    30    1
    17    29    31    1
    18    24    25   ar
    19    25    26    1
    20    25    27   ar
    21     4     5   ar
    22     9    12    1
    23    12    13    1
    24    13    14    1
    25    14    16    1
    26    16    17    1
    27    17    18    1
    28    18    19   ar
    29    18    20   ar
    30    14    15    1
    31    11     7   ar
    32     5     1   ar
    33    15     8    1
    34    27    21   ar
@<TRIPOS>MOLECULE
*****
 31 34 0 0 0
SMALL
GASTEIGER

@<TRIPOS>ATOM
      1 C           0.5870    1.1634   29.9164 C.ar    1  UNL1        0.2168
      2 N          -0.0989   -0.0978   29.4818 N.ar    1  UNL1       -0.1210
      3 N          -0.7502    0.1619   28.1557 N.ar    1  UNL1       -0.1393
      4 C          -0.4668    1.5837   27.7708 C.ar    1  UNL1        0.1351
      5 S           0.3596    2.2026   28.8589 S.2     1  UNL1       -0.0262
      6 C           0.1868    3.5839   32.0683 C.3     1  UNL1        0.0520
      7 C           1.1799    2.4647   32.1747 C.ar    1  UNL1        0.0615
      8 C           2.1634    2.2617   33.2889 C.ar    1  UNL1        0.0228
      9 C           2.9552    1.0237   32.9884 C.ar    1  UNL1        0.0789
     10 N           2.4610    0.4615   31.6885 N.ar    1  UNL1       -0.1683
     11 N           1.3638    1.3522   31.1856 N.ar    1  UNL1       -0.2100
     12 C           4.0239    0.5681   33.9373 C.3     1  UNL1        0.0647
     13 C           4.3007    1.3507   35.1867 C.3     1  UNL1        0.0788
     14 N           3.5090    2.5887   35.4872 N.3     1  UNL1       -0.2682
     15 C           2.4403    3.0443   34.5383 C.3     1  UNL1        0.1016
     16 C           3.7859    3.3713   36.7366 C.3     1  UNL1        0.0783
     17 C           3.6873    2.7044   38.0765 C.3     1  UNL1        0.0590
     18 C           2.3700    2.1666   38.5516 C.2     1  UNL1        0.0517
     19 O           2.3309    0.9788   39.4668 O.co2   1  UNL1       -0.5491
     20 O           1.0918    2.8165   38.1113 O.co2   1  UNL1       -0.5491
     21 C          -0.9287    2.2667   26.5177 C.ar    1  UNL1        0.0267
     22 C          -2.1048    3.1967   26.5603 C.ar    1  UNL1        0.0052
     23 C          -2.5666    3.8796   25.3072 C.ar    1  UNL1        0.0378
     24 C          -1.8523    3.6326   24.0116 C.ar    1  UNL1        0.1488
     25 C          -0.6762    2.7027   23.9690 C.ar    1  UNL1        0.0916
     26 CL          0.0382    2.4557   22.6732 Cl      1  UNL1       -0.0791
     27 C          -0.2143    2.0197   25.2220 C.ar    1  UNL1        0.0165
     28 O          -2.3142    4.3156   22.7584 O.3     1  UNL1       -0.4783
     29 C          -3.2776    3.6248   21.8392 C.3     1  UNL1        0.1662
     30 C          -4.6561    3.2798   22.3194 C.3     1  UNL1        0.0472
     31 C          -2.8624    3.2792   20.4399 C.3     1  UNL1        0.0472
@<TRIPOS>UNITY_ATOM_ATTR
19 1
charge -1
@<TRIPOS>BOND
     1     6     7    1
     2     7     8   ar
     3     8     9   ar
     4     9    10   ar
     5    10    11   ar
     6    11     1    1
     7     1     2   ar
     8     2     3   ar
     9     3     4   ar
    10     4    21    1
    11    21    22   ar
    12    22    23   ar
    13    23    24   ar
    14    24    28    1
    15    28    29    1
    16    29    30    1
    17    29    31    1
    18    24    25   ar
    19    25    26    1
    20    25    27   ar
    21     4     5   ar
    22     9    12    1
    23    12    13    1
    24    13    14    1
    25    14    16    1
    26    16    17    1
    27    17    18    1
    28    18    19   ar
    29    18    20   ar
    30    14    15    1
    31    11     7   ar
    32     5     1   ar
    33    15     8    1
    34    27    21   ar
@<TRIPOS>MOLECULE
*****
 31 34 0 0 0
SMALL
GASTEIGER

@<TRIPOS>ATOM
      1 C           1.2614    1.1444   30.0500 C.ar    1  UNL1        0.2168
      2 N          -0.1488    0.7500   29.7249 N.ar    1  UNL1       -0.1210
      3 N          -0.2668    0.6383   28.2337 N.ar    1  UNL1       -0.1393
      4 C           1.0704    0.9638   27.6372 C.ar    1  UNL1        0.1351
      5 S           2.0149    1.2765   28.7598 S.2     1  UNL1       -0.0262
      6 C           0.3357    3.4713   32.1424 C.3     1  UNL1        0.0520
      7 C           1.3945    2.4371   32.3859 C.ar    1  UNL1        0.0615
      8 C           2.2137    2.2909   33.6339 C.ar    1  UNL1        0.0228
      9 C           3.1455    1.1310   33.4435 C.ar    1  UNL1        0.0789
     10 N           2.9022    0.5603   32.0778 N.ar    1  UNL1       -0.1683
     11 N           1.8200    1.3676   31.4241 N.ar    1  UNL1       -0.2100
     12 C           4.0952    0.7443   34.5383 C.3     1  UNL1        0.0647
     13 C           4.1130    1.5175   35.8235 C.3     1  UNL1        0.0788
     14 N           3.1812    2.6774   36.0139 N.3     1  UNL1       -0.2682
     15 C           2.2315    3.0641   34.9191 C.3     1  UNL1        0.1016
     16 C           3.1990    3.4506   37.2992 C.3     1  UNL1        0.0783
     17 C           2.2540    3.0877   38.4060 C.3     1  UNL1        0.0590
     18 C           2.1066    1.6555   38.8270 C.2     1  UNL1        0.0517
     19 O           3.2761    0.9223   39.4143 O.co2   1  UNL1       -0.5491
     20 O           0.7899    0.9565   38.6608 O.co2   1  UNL1       -0.5491
     21 C           1.4046    0.9745   26.1750 C.ar    1  UNL1        0.0267
     22 C           2.6549    0.3051   25.6864 C.ar    1  UNL1        0.0052
     23 C           2.9890    0.3159   24.2242 C.ar    1  UNL1        0.0378
     24 C           2.0728    0.9961   23.2505 C.ar    1  UNL1        0.1488
     25 C           0.8226    1.6655   23.7391 C.ar    1  UNL1        0.0916
     26 CL         -0.0937    2.3457   22.7653 Cl      1  UNL1       -0.0791
     27 C           0.4884    1.6547   25.2013 C.ar    1  UNL1        0.0165
     28 O           2.4069    1.0069   21.7881 O.3     1  UNL1       -0.4783
     29 C           2.0124   -0.1511   20.9201 C.3     1  UNL1        0.1662
     30 C           2.9716   -1.2827   20.6978 C.3     1  UNL1        0.0472
     31 C           0.6588   -0.1775   20.2745 C.3     1  UNL1        0.0472
@<TRIPOS>UNITY_ATOM_ATTR
19 1
charge -1
@<TRIPOS>BOND
     1     6     7    1
     2     7     8   ar
     3     8     9   ar
     4     9    10   ar
     5    10    11   ar
     6    11     1    1
     7     1     2   ar
     8     2     3   ar
     9     3     4   ar
    10     4    21    1
    11    21    22   ar
    12    22    23   ar
    13    23    24   ar
    14    24    28    1
    15    28    29    1
    16    29    30    1
    17    29    31    1
    18    24    25   ar
    19    25    26    1
    20    25    27   ar
    21     4     5   ar
    22     9    12    1
    23    12    13    1
    24    13    14    1
    25    14    16    1
    26    16    17    1
    27    17    18    1
    28    18    19   ar
    29    18    20   ar
    30    14    15    1
    31    11     7   ar
    32     5     1   ar
    33    15     8    1
    34    27    21   ar
