@<TRIPOS>MOLECULE
*****
 23 26 0 0 0
SMALL
GASTEIGER

@<TRIPOS>ATOM
      1 O          -8.4470  -19.5015   20.6915 O.2     1  UNL1       -0.2448
      2 C          -8.8551  -18.1444   21.1831 C.2     1  UNL1        0.3428
      3 C         -10.3089  -17.8080   21.3360 C.2     1  UNL1        0.0963
      4 C         -11.1629  -17.1063   20.3220 C.2     1  UNL1        0.1049
      5 N         -12.5457  -16.9789   20.8891 N.2     1  UNL1       -0.2475
      6 C         -12.5463  -17.6018   22.2537 C.2     1  UNL1        0.0665
      7 C         -13.6270  -17.7686   23.2803 C.3     1  UNL1        0.1022
      8 C         -13.3254  -18.4478   24.5833 C.2     1  UNL1        0.1241
      9 F         -14.4061  -18.6146   25.6100 F       1  UNL1       -0.2084
     10 C         -11.9429  -18.9603   24.8596 C.2     1  UNL1        0.0323
     11 C         -10.8622  -18.7934   23.8328 C.2     1  UNL1        0.0379
     12 BR         -9.4797  -19.3059   24.1090 Br      1  UNL1       -0.0489
     13 C         -11.1639  -18.1142   22.5299 C.2     1  UNL1        0.0280
     14 O          -7.8095  -17.1237   21.5218 O.3     1  UNL1       -0.4454
     15 C          -8.1851  -15.8916   22.2906 C.3     1  UNL1        0.2087
     16 C          -7.7376  -15.7297   23.7130 C.3     1  UNL1        0.0445
     17 C          -6.2815  -15.5509   24.0255 C.3     1  UNL1        0.0210
     18 C          -5.8341  -15.3889   25.4481 C.3     1  UNL1        0.0722
     19 N          -6.8428  -15.4058   26.5581 N.3     1  UNL1       -0.2727
     20 C          -8.2990  -15.5846   26.2456 C.3     1  UNL1        0.0722
     21 C          -8.7464  -15.7465   24.8231 C.3     1  UNL1        0.0210
     22 C          -7.1357  -15.4983   25.7942 C.3     1  UNL1        0.0722
     23 C          -7.5404  -15.6448   24.5080 C.3     1  UNL1        0.0210
@<TRIPOS>BOND
     1     1     2    2
     2     2    14    1
     3    14    15    1
     4    15    16    1
     5    16    17    1
     6    17    18    1
     7    18    19    1
     8    19    20    1
     9    20    21    1
    10    19    22    1
    11    22    23    1
    12     2     3    1
    13     3     4    2
    14     4     5    1
    15     5     6    2
    16     6     7    1
    17     7     8    1
    18     8     9    1
    19     8    10    2
    20    10    11    1
    21    11    12    1
    22    11    13    2
    23    21    16    1
    24    13     3    1
    25    23    16    1
    26    13     6    1
@<TRIPOS>MOLECULE
*****
 23 26 0 0 0
SMALL
GASTEIGER

@<TRIPOS>ATOM
      1 O          -8.2813  -18.5930   20.2412 O.2     1  UNL1       -0.2448
      2 C          -8.2834  -17.9391   21.5912 C.2     1  UNL1        0.3428
      3 C          -9.1117  -18.5139   22.7018 C.2     1  UNL1        0.0963
      4 C          -8.6352  -19.4741   23.7510 C.2     1  UNL1        0.1049
      5 N          -9.7910  -19.7831   24.6557 N.2     1  UNL1       -0.2475
      6 C         -10.9819  -19.0138   24.1657 C.2     1  UNL1        0.0665
      7 C         -12.3943  -18.9263   24.6631 C.3     1  UNL1        0.1022
      8 C         -13.3869  -18.0543   23.9528 C.2     1  UNL1        0.1241
      9 F         -14.7993  -17.9667   24.4503 F       1  UNL1       -0.2084
     10 C         -12.9670  -17.2699   22.7452 C.2     1  UNL1        0.0323
     11 C         -11.5546  -17.3574   22.2478 C.2     1  UNL1        0.0379
     12 BR        -11.1347  -16.5730   21.0401 Br      1  UNL1       -0.0489
     13 C         -10.5620  -18.2294   22.9580 C.2     1  UNL1        0.0280
     14 O          -7.4571  -16.7103   21.8305 O.3     1  UNL1       -0.4454
     15 C          -7.9694  -15.6255   22.7310 C.3     1  UNL1        0.2087
     16 C          -7.5633  -15.5950   24.1746 C.3     1  UNL1        0.0445
     17 C          -6.1374  -15.3154   24.5469 C.3     1  UNL1        0.0210
     18 C          -5.7314  -15.2850   25.9906 C.3     1  UNL1        0.0722
     19 N          -6.7513  -15.5340   27.0620 N.3     1  UNL1       -0.2727
     20 C          -8.1772  -15.8135   26.6897 C.3     1  UNL1        0.0722
     21 C          -8.5832  -15.8440   25.2460 C.3     1  UNL1        0.0210
     22 C          -7.0212  -15.5609   26.2846 C.3     1  UNL1        0.0722
     23 C          -7.3884  -15.5885   24.9792 C.3     1  UNL1        0.0210
@<TRIPOS>BOND
     1     1     2    2
     2     2    14    1
     3    14    15    1
     4    15    16    1
     5    16    17    1
     6    17    18    1
     7    18    19    1
     8    19    20    1
     9    20    21    1
    10    19    22    1
    11    22    23    1
    12     2     3    1
    13     3     4    2
    14     4     5    1
    15     5     6    2
    16     6     7    1
    17     7     8    1
    18     8     9    1
    19     8    10    2
    20    10    11    1
    21    11    12    1
    22    11    13    2
    23    21    16    1
    24    13     3    1
    25    23    16    1
    26    13     6    1
@<TRIPOS>MOLECULE
*****
 23 26 0 0 0
SMALL
GASTEIGER

@<TRIPOS>ATOM
      1 O          -8.7439  -20.0240   19.7282 O.2     1  UNL1       -0.2448
      2 C          -8.8827  -18.7447   20.4989 C.2     1  UNL1        0.3428
      3 C         -10.2455  -18.2102   20.8260 C.2     1  UNL1        0.0963
      4 C         -11.1031  -17.3714   19.9255 C.2     1  UNL1        0.1049
      5 N         -12.3776  -17.0635   20.6540 N.2     1  UNL1       -0.2475
      6 C         -12.3078  -17.7121   22.0047 C.2     1  UNL1        0.0665
      7 C         -13.2738  -17.7489   23.1516 C.3     1  UNL1        0.1022
      8 C         -12.9221  -18.4944   24.4049 C.2     1  UNL1        0.1241
      9 F         -13.8881  -18.5312   25.5518 F       1  UNL1       -0.2084
     10 C         -11.6044  -19.2031   24.5112 C.2     1  UNL1        0.0323
     11 C         -10.6383  -19.1663   23.3642 C.2     1  UNL1        0.0379
     12 BR         -9.3206  -19.8750   23.4705 Br      1  UNL1       -0.0489
     13 C         -10.9900  -18.4208   22.1110 C.2     1  UNL1        0.0280
     14 O          -7.6586  -17.9998   20.9424 O.3     1  UNL1       -0.4454
     15 C          -6.7474  -18.5997   21.9719 C.3     1  UNL1        0.2087
     16 C          -5.4101  -19.1432   21.5643 C.3     1  UNL1        0.0445
     17 C          -5.3069  -20.0910   20.4063 C.3     1  UNL1        0.0210
     18 C          -3.9695  -20.6344   19.9987 C.3     1  UNL1        0.0722
     19 N          -2.7353  -20.2300   20.7492 N.3     1  UNL1       -0.2727
     20 C          -2.8385  -19.2822   21.9072 C.3     1  UNL1        0.0722
     21 C          -4.1759  -18.7388   22.3148 C.3     1  UNL1        0.0210
     22 C          -3.4461  -19.9060   21.0095 C.3     1  UNL1        0.0722
     23 C          -4.6553  -19.4146   21.3781 C.3     1  UNL1        0.0210
@<TRIPOS>BOND
     1     1     2    2
     2     2    14    1
     3    14    15    1
     4    15    16    1
     5    16    17    1
     6    17    18    1
     7    18    19    1
     8    19    20    1
     9    20    21    1
    10    19    22    1
    11    22    23    1
    12     2     3    1
    13     3     4    2
    14     4     5    1
    15     5     6    2
    16     6     7    1
    17     7     8    1
    18     8     9    1
    19     8    10    2
    20    10    11    1
    21    11    12    1
    22    11    13    2
    23    21    16    1
    24    13     3    1
    25    23    16    1
    26    13     6    1
@<TRIPOS>MOLECULE
*****
 23 26 0 0 0
SMALL
GASTEIGER

@<TRIPOS>ATOM
      1 O          -6.3421  -17.1264   22.7354 O.2     1  UNL1       -0.2448
      2 C          -7.1988  -18.0649   21.9385 C.2     1  UNL1        0.3428
      3 C          -8.3301  -18.7936   22.6012 C.2     1  UNL1        0.0963
      4 C          -8.2725  -20.1800   23.1707 C.2     1  UNL1        0.1049
      5 N          -9.6244  -20.5070   23.7322 N.2     1  UNL1       -0.2475
      6 C         -10.5176  -19.3227   23.5097 C.2     1  UNL1        0.0665
      7 C         -11.9560  -19.0717   23.8534 C.3     1  UNL1        0.1022
      8 C         -12.5945  -17.7617   23.4979 C.2     1  UNL1        0.1241
      9 F         -14.0328  -17.5107   23.8415 F       1  UNL1       -0.2084
     10 C         -11.7945  -16.7027   22.7989 C.2     1  UNL1        0.0323
     11 C         -10.3561  -16.9537   22.4553 C.2     1  UNL1        0.0379
     12 BR         -9.5562  -15.8947   21.7562 Br      1  UNL1       -0.0489
     13 C          -9.7177  -18.2637   22.8107 C.2     1  UNL1        0.0280
     14 O          -6.9243  -18.2748   20.4788 O.3     1  UNL1       -0.4454
     15 C          -6.0081  -19.3780   20.0389 C.3     1  UNL1        0.2087
     16 C          -4.5277  -19.2503   20.2445 C.3     1  UNL1        0.0445
     17 C          -3.8999  -19.7549   21.5098 C.3     1  UNL1        0.0210
     18 C          -2.4196  -19.6272   21.7153 C.3     1  UNL1        0.0722
     19 N          -1.5671  -18.9948   20.6554 N.3     1  UNL1       -0.2727
     20 C          -2.1949  -18.4902   19.3901 C.3     1  UNL1        0.0722
     21 C          -3.6752  -18.6179   19.1846 C.3     1  UNL1        0.0210
     22 C          -2.3737  -19.0427   20.4978 C.3     1  UNL1        0.0722
     23 C          -3.7123  -19.1582   20.3119 C.3     1  UNL1        0.0210
@<TRIPOS>BOND
     1     1     2    2
     2     2    14    1
     3    14    15    1
     4    15    16    1
     5    16    17    1
     6    17    18    1
     7    18    19    1
     8    19    20    1
     9    20    21    1
    10    19    22    1
    11    22    23    1
    12     2     3    1
    13     3     4    2
    14     4     5    1
    15     5     6    2
    16     6     7    1
    17     7     8    1
    18     8     9    1
    19     8    10    2
    20    10    11    1
    21    11    12    1
    22    11    13    2
    23    21    16    1
    24    13     3    1
    25    23    16    1
    26    13     6    1
@<TRIPOS>MOLECULE
*****
 23 26 0 0 0
SMALL
GASTEIGER

@<TRIPOS>ATOM
      1 O          -5.9974  -18.4309   19.7556 O.2     1  UNL1       -0.2448
      2 C          -6.3112  -18.7951   21.1764 C.2     1  UNL1        0.3428
      3 C          -7.4190  -18.0924   21.9037 C.2     1  UNL1        0.0963
      4 C          -7.2596  -17.1811   23.0844 C.2     1  UNL1        0.1049
      5 N          -8.6228  -16.7031   23.4884 N.2     1  UNL1       -0.2475
      6 C          -9.6248  -17.3190   22.5573 C.2     1  UNL1        0.0665
      7 C         -11.1184  -17.2089   22.4748 C.3     1  UNL1        0.1022
      8 C         -11.8681  -17.9574   21.4128 C.2     1  UNL1        0.1241
      9 F         -13.3618  -17.8473   21.3303 F       1  UNL1       -0.2084
     10 C         -11.1241  -18.8161   20.4334 C.2     1  UNL1        0.0323
     11 C          -9.6304  -18.9262   20.5160 C.2     1  UNL1        0.0379
     12 BR         -8.8864  -19.7848   19.5366 Br      1  UNL1       -0.0489
     13 C          -8.8808  -18.1776   21.5779 C.2     1  UNL1        0.0280
     14 O          -5.5172  -19.8622   21.8700 O.3     1  UNL1       -0.4454
     15 C          -4.2438  -19.5080   22.5792 C.3     1  UNL1        0.2087
     16 C          -3.2463  -18.6012   21.9216 C.3     1  UNL1        0.0445
     17 C          -2.4420  -19.0917   20.7543 C.3     1  UNL1        0.0210
     18 C          -1.4445  -18.1847   20.0968 C.3     1  UNL1        0.0722
     19 N          -1.2513  -16.7872   20.6065 N.3     1  UNL1       -0.2727
     20 C          -2.0556  -16.2967   21.7737 C.3     1  UNL1        0.0722
     21 C          -3.0531  -17.2037   22.4313 C.3     1  UNL1        0.0210
     22 C          -1.8097  -17.2475   20.9992 C.3     1  UNL1        0.0722
     23 C          -2.7116  -18.0675   21.5939 C.3     1  UNL1        0.0210
@<TRIPOS>BOND
     1     1     2    2
     2     2    14    1
     3    14    15    1
     4    15    16    1
     5    16    17    1
     6    17    18    1
     7    18    19    1
     8    19    20    1
     9    20    21    1
    10    19    22    1
    11    22    23    1
    12     2     3    1
    13     3     4    2
    14     4     5    1
    15     5     6    2
    16     6     7    1
    17     7     8    1
    18     8     9    1
    19     8    10    2
    20    10    11    1
    21    11    12    1
    22    11    13    2
    23    21    16    1
    24    13     3    1
    25    23    16    1
    26    13     6    1
@<TRIPOS>MOLECULE
*****
 23 26 0 0 0
SMALL
GASTEIGER

@<TRIPOS>ATOM
      1 O          -7.7020  -15.6232   22.4583 O.2     1  UNL1       -0.2448
      2 C          -7.7428  -17.0642   22.8728 C.2     1  UNL1        0.3428
      3 C          -7.1731  -18.1200   21.9724 C.2     1  UNL1        0.0963
      4 C          -7.9428  -18.9453   20.9843 C.2     1  UNL1        0.1049
      5 N          -6.9790  -19.8712   20.3033 N.2     1  UNL1       -0.2475
      6 C          -5.6137  -19.6182   20.8705 C.2     1  UNL1        0.0665
      7 C          -4.2767  -20.2335   20.5810 C.3     1  UNL1        0.1022
      8 C          -3.0596  -19.7665   21.3231 C.2     1  UNL1        0.1241
      9 F          -1.7226  -20.3818   21.0336 F       1  UNL1       -0.2084
     10 C          -3.1795  -18.6842   22.3547 C.2     1  UNL1        0.0323
     11 C          -4.5166  -18.0689   22.6442 C.2     1  UNL1        0.0379
     12 BR         -4.6366  -16.9866   23.6758 Br      1  UNL1       -0.0489
     13 C          -5.7336  -18.5359   21.9021 C.2     1  UNL1        0.0280
     14 O          -8.3535  -17.4494   24.1876 O.3     1  UNL1       -0.4454
     15 C          -9.8376  -17.3526   24.3824 C.3     1  UNL1        0.2087
     16 C         -10.7558  -17.4252   23.1985 C.3     1  UNL1        0.0445
     17 C         -11.3454  -16.1692   22.6286 C.3     1  UNL1        0.0210
     18 C         -12.2636  -16.2418   21.4446 C.3     1  UNL1        0.0722
     19 N         -12.5921  -17.5704   20.8307 N.3     1  UNL1       -0.2727
     20 C         -12.0025  -18.8264   21.4007 C.3     1  UNL1        0.0722
     21 C         -11.0843  -18.7537   22.5846 C.3     1  UNL1        0.0210
     22 C         -12.0840  -17.5807   21.4785 C.3     1  UNL1        0.0722
     23 C         -11.2538  -17.5152   22.5490 C.3     1  UNL1        0.0210
@<TRIPOS>BOND
     1     1     2    2
     2     2    14    1
     3    14    15    1
     4    15    16    1
     5    16    17    1
     6    17    18    1
     7    18    19    1
     8    19    20    1
     9    20    21    1
    10    19    22    1
    11    22    23    1
    12     2     3    1
    13     3     4    2
    14     4     5    1
    15     5     6    2
    16     6     7    1
    17     7     8    1
    18     8     9    1
    19     8    10    2
    20    10    11    1
    21    11    12    1
    22    11    13    2
    23    21    16    1
    24    13     3    1
    25    23    16    1
    26    13     6    1
@<TRIPOS>MOLECULE
*****
 23 26 0 0 0
SMALL
GASTEIGER

@<TRIPOS>ATOM
      1 O         -10.6871  -15.9341   20.1204 O.2     1  UNL1       -0.2448
      2 C         -10.9441  -17.3917   20.3644 C.2     1  UNL1        0.3428
      3 C          -9.8544  -18.3951   20.1286 C.2     1  UNL1        0.0963
      4 C          -9.8778  -19.5003   19.1147 C.2     1  UNL1        0.1049
      5 N          -8.5878  -20.2578   19.2249 N.2     1  UNL1       -0.2475
      6 C          -7.7672  -19.6208   20.3069 C.2     1  UNL1        0.0665
      7 C          -6.4082  -19.9403   20.8557 C.3     1  UNL1        0.1022
      8 C          -5.8320  -19.1086   21.9631 C.2     1  UNL1        0.1241
      9 F          -4.4731  -19.4281   22.5120 F       1  UNL1       -0.2084
     10 C          -6.6148  -17.9574   22.5217 C.2     1  UNL1        0.0323
     11 C          -7.9738  -17.6379   21.9728 C.2     1  UNL1        0.0379
     12 BR         -8.7566  -16.4867   22.5314 Br      1  UNL1       -0.0489
     13 C          -8.5499  -18.4696   20.8655 C.2     1  UNL1        0.0280
     14 O         -12.2908  -17.8457   20.8442 O.3     1  UNL1       -0.4454
     15 C         -12.5577  -17.9788   22.3143 C.3     1  UNL1        0.2087
     16 C         -11.5783  -18.7001   23.1920 C.3     1  UNL1        0.0445
     17 C         -11.0906  -18.0582   24.4570 C.3     1  UNL1        0.0210
     18 C         -10.1113  -18.7796   25.3347 C.3     1  UNL1        0.0722
     19 N          -9.6196  -20.1428   24.9475 N.3     1  UNL1       -0.2727
     20 C         -10.1073  -20.7846   23.6825 C.3     1  UNL1        0.0722
     21 C         -11.0867  -20.0633   22.8048 C.3     1  UNL1        0.0210
     22 C         -10.1561  -19.7865   24.4346 C.3     1  UNL1        0.0722
     23 C         -11.0416  -19.1343   23.6408 C.3     1  UNL1        0.0210
@<TRIPOS>BOND
     1     1     2    2
     2     2    14    1
     3    14    15    1
     4    15    16    1
     5    16    17    1
     6    17    18    1
     7    18    19    1
     8    19    20    1
     9    20    21    1
    10    19    22    1
    11    22    23    1
    12     2     3    1
    13     3     4    2
    14     4     5    1
    15     5     6    2
    16     6     7    1
    17     7     8    1
    18     8     9    1
    19     8    10    2
    20    10    11    1
    21    11    12    1
    22    11    13    2
    23    21    16    1
    24    13     3    1
    25    23    16    1
    26    13     6    1
@<TRIPOS>MOLECULE
*****
 23 26 0 0 0
SMALL
GASTEIGER

@<TRIPOS>ATOM
      1 O          -8.2050  -15.2738   21.2352 O.2     1  UNL1       -0.2448
      2 C          -8.1105  -16.6334   21.8618 C.2     1  UNL1        0.3428
      3 C          -8.6153  -16.8528   23.2572 C.2     1  UNL1        0.0963
      4 C          -9.9059  -17.5183   23.6334 C.2     1  UNL1        0.1049
      5 N         -10.0063  -17.5220   25.1300 N.2     1  UNL1       -0.2475
      6 C          -8.7778  -16.8589   25.6787 C.2     1  UNL1        0.0665
      7 C          -8.3309  -16.5783   27.0828 C.3     1  UNL1        0.1022
      8 C          -7.0243  -15.8840   27.3294 C.2     1  UNL1        0.1241
      9 F          -6.5774  -15.6034   28.7335 F       1  UNL1       -0.2084
     10 C          -6.1646  -15.4705   26.1719 C.2     1  UNL1        0.0323
     11 C          -6.6115  -15.7511   24.7678 C.2     1  UNL1        0.0379
     12 BR         -5.7518  -15.3375   23.6102 Br      1  UNL1       -0.0489
     13 C          -7.9181  -16.4453   24.5212 C.2     1  UNL1        0.0280
     14 O          -7.5114  -17.7735   21.0930 O.3     1  UNL1       -0.4454
     15 C          -6.8931  -18.9283   21.8240 C.3     1  UNL1        0.2087
     16 C          -5.4743  -19.3231   21.5393 C.3     1  UNL1        0.0445
     17 C          -5.1527  -20.1404   20.3233 C.3     1  UNL1        0.0210
     18 C          -3.7339  -20.5351   20.0387 C.3     1  UNL1        0.0722
     19 N          -2.6366  -20.1127   20.9701 N.3     1  UNL1       -0.2727
     20 C          -2.9582  -19.2954   22.1861 C.3     1  UNL1        0.0722
     21 C          -4.3770  -18.9007   22.4707 C.3     1  UNL1        0.0210
     22 C          -3.3989  -19.8723   21.1676 C.3     1  UNL1        0.0722
     23 C          -4.6818  -19.5153   21.4251 C.3     1  UNL1        0.0210
@<TRIPOS>BOND
     1     1     2    2
     2     2    14    1
     3    14    15    1
     4    15    16    1
     5    16    17    1
     6    17    18    1
     7    18    19    1
     8    19    20    1
     9    20    21    1
    10    19    22    1
    11    22    23    1
    12     2     3    1
    13     3     4    2
    14     4     5    1
    15     5     6    2
    16     6     7    1
    17     7     8    1
    18     8     9    1
    19     8    10    2
    20    10    11    1
    21    11    12    1
    22    11    13    2
    23    21    16    1
    24    13     3    1
    25    23    16    1
    26    13     6    1
@<TRIPOS>MOLECULE
*****
 23 26 0 0 0
SMALL
GASTEIGER

@<TRIPOS>ATOM
      1 O          -6.1381  -17.1055   22.7146 O.2     1  UNL1       -0.2448
      2 C          -6.3701  -18.4716   22.1403 C.2     1  UNL1        0.3428
      3 C          -7.4996  -18.6995   21.1799 C.2     1  UNL1        0.0963
      4 C          -7.3759  -19.2371   19.7850 C.2     1  UNL1        0.1049
      5 N          -8.7510  -19.2997   19.1889 N.2     1  UNL1       -0.2475
      6 C          -9.7244  -18.8008   20.2153 C.2     1  UNL1        0.0665
      7 C         -11.2151  -18.6364   20.1884 C.3     1  UNL1        0.1022
      8 C         -11.9324  -18.1010   21.3921 C.2     1  UNL1        0.1241
      9 F         -13.4231  -17.9365   21.3652 F       1  UNL1       -0.2084
     10 C         -11.1590  -17.7300   22.6227 C.2     1  UNL1        0.0323
     11 C          -9.6683  -17.8945   22.6495 C.2     1  UNL1        0.0379
     12 BR         -8.8949  -17.5236   23.8801 Br      1  UNL1       -0.0489
     13 C          -8.9510  -18.4299   21.4459 C.2     1  UNL1        0.0280
     14 O          -5.4727  -19.6098   22.5264 O.3     1  UNL1       -0.4454
     15 C          -4.3466  -20.0169   21.6230 C.3     1  UNL1        0.2087
     16 C          -3.4375  -18.9751   21.0414 C.3     1  UNL1        0.0445
     17 C          -3.2461  -18.8913   19.5560 C.3     1  UNL1        0.0210
     18 C          -2.3370  -17.8495   18.9746 C.3     1  UNL1        0.0722
     19 N          -1.6193  -16.8914   19.8785 N.3     1  UNL1       -0.2727
     20 C          -1.8107  -16.9752   21.3639 C.3     1  UNL1        0.0722
     21 C          -2.7198  -18.0170   21.9453 C.3     1  UNL1        0.0210
     22 C          -2.1072  -17.4452   20.2434 C.3     1  UNL1        0.0722
     23 C          -2.9292  -18.3872   20.7693 C.3     1  UNL1        0.0210
@<TRIPOS>BOND
     1     1     2    2
     2     2    14    1
     3    14    15    1
     4    15    16    1
     5    16    17    1
     6    17    18    1
     7    18    19    1
     8    19    20    1
     9    20    21    1
    10    19    22    1
    11    22    23    1
    12     2     3    1
    13     3     4    2
    14     4     5    1
    15     5     6    2
    16     6     7    1
    17     7     8    1
    18     8     9    1
    19     8    10    2
    20    10    11    1
    21    11    12    1
    22    11    13    2
    23    21    16    1
    24    13     3    1
    25    23    16    1
    26    13     6    1
