@<TRIPOS>MOLECULE
*****
 24 26 0 0 0
SMALL
GASTEIGER

@<TRIPOS>ATOM
      1 C          -7.9814  -16.9124   22.8326 C.2     1  UNL1        0.2298
      2 O          -7.6536  -16.1244   21.5992 O.2     1  UNL1       -0.2744
      3 N          -7.2539  -18.1922   23.1204 N.am    1  UNL1       -0.2827
      4 H          -7.4691  -18.7094   23.9300 H       1  UNL1        0.1549
      5 C          -6.1985  -18.6840   22.1747 C.ar    1  UNL1        0.0638
      6 C          -4.7479  -18.5342   22.5262 C.ar    1  UNL1        0.0159
      7 C          -3.6925  -19.0260   21.5806 C.ar    1  UNL1        0.0014
      8 C          -4.0876  -19.6674   20.2835 C.ar    1  UNL1        0.0014
      9 C          -5.5381  -19.8171   19.9321 C.ar    1  UNL1        0.0158
     10 C          -6.5936  -19.3254   20.8777 C.ar    1  UNL1        0.0615
     11 N          -8.0441  -19.4751   20.5263 N.pl3   1  UNL1       -0.3065
     12 C          -9.1737  -19.6466   21.4982 C.3     1  UNL1        0.0909
     13 C         -10.4475  -19.7571   20.7138 C.3     1  UNL1        0.0232
     14 C         -10.1052  -19.6540   19.2571 C.3     1  UNL1        0.0232
     15 C          -8.6198  -19.4797   19.1412 C.3     1  UNL1        0.0909
     16 C          -9.0369  -16.4207   23.7783 C.3     1  UNL1        0.0990
     17 C         -10.4478  -16.9132   23.6493 C.ar    1  UNL1       -0.0139
     18 C         -11.4137  -16.1957   22.7537 C.ar    1  UNL1       -0.0038
     19 C         -12.8247  -16.6882   22.6247 C.ar    1  UNL1       -0.0003
     20 C         -13.2698  -17.8982   23.3913 C.ar    1  UNL1       -0.0000
     21 C         -12.3039  -18.6157   24.2870 C.ar    1  UNL1       -0.0003
     22 C         -10.8929  -18.1232   24.4160 C.ar    1  UNL1       -0.0038
     23 C          -8.3444  -15.9210   26.2320 C.3     1  UNL1        0.0009
     24 C          -8.6813  -15.4365   24.8530 C.3     1  UNL1        0.0135
@<TRIPOS>BOND
     1    23    24    1
     2    16    24    1
     3    16     1    1
     4     1     2    2
     5     1     3   am
     6     3     5    1
     7     5     6   ar
     8     6     7   ar
     9     7     8   ar
    10     8     9   ar
    11     9    10   ar
    12    10    11    1
    13    11    12    1
    14    12    13    1
    15    13    14    1
    16    14    15    1
    17    16    17    1
    18    17    18   ar
    19    18    19   ar
    20    19    20   ar
    21    20    21   ar
    22    21    22   ar
    23    10     5   ar
    24    15    11    1
    25    22    17   ar
    26     3     4    1
@<TRIPOS>MOLECULE
*****
 24 26 0 0 0
SMALL
GASTEIGER

@<TRIPOS>ATOM
      1 C          -5.7384  -18.7711   21.9610 C.2     1  UNL1        0.2298
      2 O          -5.9966  -20.2230   22.2354 O.2     1  UNL1       -0.2744
      3 N          -6.8011  -17.9283   21.3206 N.am    1  UNL1       -0.2827
      4 H          -6.6316  -16.9753   21.1405 H       1  UNL1        0.1549
      5 C          -8.1222  -18.5373   20.9546 C.ar    1  UNL1        0.0638
      6 C          -8.2606  -19.3194   19.6821 C.ar    1  UNL1        0.0159
      7 C          -9.5816  -19.9284   19.3160 C.ar    1  UNL1        0.0014
      8 C         -10.7641  -19.7555   20.2224 C.ar    1  UNL1        0.0014
      9 C         -10.6257  -18.9734   21.4949 C.ar    1  UNL1        0.0158
     10 C          -9.3047  -18.3644   21.8610 C.ar    1  UNL1        0.0615
     11 N          -9.1663  -17.5824   23.1335 N.pl3   1  UNL1       -0.3065
     12 C          -8.7476  -16.1463   23.2448 C.3     1  UNL1        0.0909
     13 C          -8.7448  -15.7755   24.6982 C.3     1  UNL1        0.0232
     14 C          -9.1617  -16.9824   25.4853 C.3     1  UNL1        0.0232
     15 C          -9.4222  -18.0991   24.5183 C.3     1  UNL1        0.0909
     16 C          -4.4173  -18.1620   22.3271 C.3     1  UNL1        0.0990
     17 C          -3.3267  -18.0644   21.3019 C.ar    1  UNL1       -0.0139
     18 C          -3.4397  -18.8218   20.0121 C.ar    1  UNL1       -0.0038
     19 C          -2.3491  -18.7242   18.9870 C.ar    1  UNL1       -0.0003
     20 C          -1.1454  -17.8692   19.2516 C.ar    1  UNL1       -0.0000
     21 C          -1.0323  -17.1118   20.5414 C.ar    1  UNL1       -0.0003
     22 C          -2.1229  -17.2094   21.5666 C.ar    1  UNL1       -0.0038
     23 C          -4.8500  -16.3836   24.1708 C.3     1  UNL1        0.0009
     24 C          -4.1870  -17.6506   23.7182 C.3     1  UNL1        0.0135
@<TRIPOS>BOND
     1    23    24    1
     2    16    24    1
     3    16     1    1
     4     1     2    2
     5     1     3   am
     6     3     5    1
     7     5     6   ar
     8     6     7   ar
     9     7     8   ar
    10     8     9   ar
    11     9    10   ar
    12    10    11    1
    13    11    12    1
    14    12    13    1
    15    13    14    1
    16    14    15    1
    17    16    17    1
    18    17    18   ar
    19    18    19   ar
    20    19    20   ar
    21    20    21   ar
    22    21    22   ar
    23    10     5   ar
    24    15    11    1
    25    22    17   ar
    26     3     4    1
@<TRIPOS>MOLECULE
*****
 24 26 0 0 0
SMALL
GASTEIGER

@<TRIPOS>ATOM
      1 C          -7.0290  -18.9252   21.0164 C.2     1  UNL1        0.2298
      2 O          -6.3247  -18.5783   19.7382 O.2     1  UNL1       -0.2744
      3 N          -6.2516  -19.0379   22.2942 N.am    1  UNL1       -0.2827
      4 H          -6.7138  -19.2655   23.1331 H       1  UNL1        0.1549
      5 C          -4.7699  -18.8037   22.2940 C.ar    1  UNL1        0.0638
      6 C          -3.8633  -19.7373   21.5480 C.ar    1  UNL1        0.0159
      7 C          -2.3817  -19.5032   21.5477 C.ar    1  UNL1        0.0014
      8 C          -1.8068  -18.3356   22.2934 C.ar    1  UNL1        0.0014
      9 C          -2.7134  -17.4020   23.0393 C.ar    1  UNL1        0.0158
     10 C          -4.1950  -17.6361   23.0396 C.ar    1  UNL1        0.0615
     11 N          -5.1017  -16.7026   23.7856 N.pl3   1  UNL1       -0.3065
     12 C          -6.3970  -16.1400   23.2801 C.3     1  UNL1        0.0909
     13 C          -6.9681  -15.2574   24.3501 C.3     1  UNL1        0.0232
     14 C          -6.0257  -15.2745   25.5169 C.3     1  UNL1        0.0232
     15 C          -4.8722  -16.1676   25.1680 C.3     1  UNL1        0.0909
     16 C          -8.5106  -19.1593   21.0166 C.3     1  UNL1        0.0990
     17 C          -9.2948  -19.0003   22.2854 C.ar    1  UNL1       -0.0139
     18 C          -9.7452  -17.6381   22.7230 C.ar    1  UNL1       -0.0038
     19 C         -10.5294  -17.4791   23.9918 C.ar    1  UNL1       -0.0003
     20 C         -10.8631  -18.6823   24.8230 C.ar    1  UNL1       -0.0000
     21 C         -10.4127  -20.0446   24.3854 C.ar    1  UNL1       -0.0003
     22 C          -9.6285  -20.2036   23.1166 C.ar    1  UNL1       -0.0038
     23 C         -10.6351  -19.1500   19.5213 C.3     1  UNL1        0.0009
     24 C          -9.2080  -19.5524   19.7482 C.3     1  UNL1        0.0135
@<TRIPOS>BOND
     1    23    24    1
     2    16    24    1
     3    16     1    1
     4     1     2    2
     5     1     3   am
     6     3     5    1
     7     5     6   ar
     8     6     7   ar
     9     7     8   ar
    10     8     9   ar
    11     9    10   ar
    12    10    11    1
    13    11    12    1
    14    12    13    1
    15    13    14    1
    16    14    15    1
    17    16    17    1
    18    17    18   ar
    19    18    19   ar
    20    19    20   ar
    21    20    21   ar
    22    21    22   ar
    23    10     5   ar
    24    15    11    1
    25    22    17   ar
    26     3     4    1
@<TRIPOS>MOLECULE
*****
 24 26 0 0 0
SMALL
GASTEIGER

@<TRIPOS>ATOM
      1 C          -7.3092  -18.6263   22.0231 C.2     1  UNL1        0.2298
      2 O          -7.1347  -17.7494   20.8188 O.2     1  UNL1       -0.2744
      3 N          -6.1071  -19.1149   22.7756 N.am    1  UNL1       -0.2827
      4 H          -6.2216  -19.6905   23.5661 H       1  UNL1        0.1549
      5 C          -4.7305  -18.7266   22.3237 C.ar    1  UNL1        0.0638
      6 C          -4.0136  -19.5593   21.3025 C.ar    1  UNL1        0.0159
      7 C          -2.6370  -19.1710   20.8506 C.ar    1  UNL1        0.0014
      8 C          -1.9773  -17.9501   21.4198 C.ar    1  UNL1        0.0014
      9 C          -2.6942  -17.1174   22.4409 C.ar    1  UNL1        0.0158
     10 C          -4.0708  -17.5057   22.8929 C.ar    1  UNL1        0.0615
     11 N          -4.7876  -16.6730   23.9140 N.pl3   1  UNL1       -0.3065
     12 C          -5.9056  -15.7111   23.6400 C.3     1  UNL1        0.0909
     13 C          -6.3213  -15.0996   24.9451 C.3     1  UNL1        0.0232
     14 C          -5.4603  -15.6835   26.0257 C.3     1  UNL1        0.0232
     15 C          -4.5125  -16.6559   25.3884 C.3     1  UNL1        0.0909
     16 C          -8.6858  -19.0146   22.4751 C.3     1  UNL1        0.0990
     17 C          -9.8674  -18.1770   22.0848 C.ar    1  UNL1       -0.0139
     18 C         -10.6490  -18.5122   20.8492 C.ar    1  UNL1       -0.0038
     19 C         -11.8306  -17.6746   20.4590 C.ar    1  UNL1       -0.0003
     20 C         -12.2306  -16.5019   21.3043 C.ar    1  UNL1       -0.0000
     21 C         -11.4490  -16.1667   22.5400 C.ar    1  UNL1       -0.0003
     22 C         -10.2674  -17.0043   22.9303 C.ar    1  UNL1       -0.0038
     23 C         -10.0176  -20.3066   24.2935 C.3     1  UNL1        0.0009
     24 C          -8.8808  -20.2405   23.3172 C.3     1  UNL1        0.0135
@<TRIPOS>BOND
     1    23    24    1
     2    16    24    1
     3    16     1    1
     4     1     2    2
     5     1     3   am
     6     3     5    1
     7     5     6   ar
     8     6     7   ar
     9     7     8   ar
    10     8     9   ar
    11     9    10   ar
    12    10    11    1
    13    11    12    1
    14    12    13    1
    15    13    14    1
    16    14    15    1
    17    16    17    1
    18    17    18   ar
    19    18    19   ar
    20    19    20   ar
    21    20    21   ar
    22    21    22   ar
    23    10     5   ar
    24    15    11    1
    25    22    17   ar
    26     3     4    1
@<TRIPOS>MOLECULE
*****
 24 26 0 0 0
SMALL
GASTEIGER

@<TRIPOS>ATOM
      1 C          -5.2996  -18.5129   22.1699 C.2     1  UNL1        0.2298
      2 O          -4.6522  -18.4802   23.5226 O.2     1  UNL1       -0.2744
      3 N          -6.5819  -17.7714   21.9340 N.am    1  UNL1       -0.2827
      4 H          -7.0068  -17.7929   21.0461 H       1  UNL1        0.1549
      5 C          -7.2169  -16.9970   23.0508 C.ar    1  UNL1        0.0638
      6 C          -6.4007  -16.0213   23.8456 C.ar    1  UNL1        0.0159
      7 C          -7.0356  -15.2469   24.9623 C.ar    1  UNL1        0.0014
      8 C          -8.4867  -15.4483   25.2843 C.ar    1  UNL1        0.0014
      9 C          -9.3029  -16.4241   24.4894 C.ar    1  UNL1        0.0158
     10 C          -8.6680  -17.1984   23.3727 C.ar    1  UNL1        0.0615
     11 N          -9.4842  -18.1742   22.5779 N.pl3   1  UNL1       -0.3065
     12 C          -9.9151  -19.5378   23.0304 C.3     1  UNL1        0.0909
     13 C         -10.7100  -20.1640   21.9232 C.3     1  UNL1        0.0232
     14 C         -10.7704  -19.1874   20.7863 C.3     1  UNL1        0.0232
     15 C         -10.0128  -17.9577   21.1909 C.3     1  UNL1        0.0909
     16 C          -4.6646  -19.2873   21.0531 C.3     1  UNL1        0.0990
     17 C          -3.3725  -18.8165   20.4539 C.ar    1  UNL1       -0.0139
     18 C          -2.0901  -18.9775   21.2152 C.ar    1  UNL1       -0.0038
     19 C          -0.7981  -18.5067   20.6160 C.ar    1  UNL1       -0.0003
     20 C          -0.7885  -17.8749   19.2556 C.ar    1  UNL1       -0.0000
     21 C          -2.0709  -17.7139   18.4943 C.ar    1  UNL1       -0.0003
     22 C          -3.3629  -18.1847   19.0934 C.ar    1  UNL1       -0.0038
     23 C          -6.7561  -20.4973   20.0985 C.3     1  UNL1        0.0009
     24 C          -5.3216  -20.5324   20.5355 C.3     1  UNL1        0.0135
@<TRIPOS>BOND
     1    23    24    1
     2    16    24    1
     3    16     1    1
     4     1     2    2
     5     1     3   am
     6     3     5    1
     7     5     6   ar
     8     6     7   ar
     9     7     8   ar
    10     8     9   ar
    11     9    10   ar
    12    10    11    1
    13    11    12    1
    14    12    13    1
    15    13    14    1
    16    14    15    1
    17    16    17    1
    18    17    18   ar
    19    18    19   ar
    20    19    20   ar
    21    20    21   ar
    22    21    22   ar
    23    10     5   ar
    24    15    11    1
    25    22    17   ar
    26     3     4    1
@<TRIPOS>MOLECULE
*****
 24 26 0 0 0
SMALL
GASTEIGER

@<TRIPOS>ATOM
      1 C          -8.2896  -19.3232   21.4141 C.2     1  UNL1        0.2298
      2 O          -7.9457  -20.4057   22.3939 O.2     1  UNL1       -0.2744
      3 N          -7.2557  -18.3094   21.0231 N.am    1  UNL1       -0.2827
      4 H          -7.4814  -17.5989   20.3801 H       1  UNL1        0.1549
      5 C          -5.8777  -18.3779   21.6119 C.ar    1  UNL1        0.0638
      6 C          -4.8375  -19.2587   20.9856 C.ar    1  UNL1        0.0159
      7 C          -3.4596  -19.3273   21.5744 C.ar    1  UNL1        0.0014
      8 C          -3.1219  -18.5151   22.7893 C.ar    1  UNL1        0.0014
      9 C          -4.1621  -17.6343   23.4156 C.ar    1  UNL1        0.0158
     10 C          -5.5400  -17.5657   22.8269 C.ar    1  UNL1        0.0615
     11 N          -6.5802  -16.6849   23.4532 N.pl3   1  UNL1       -0.3065
     12 C          -6.4180  -15.2327   23.7920 C.3     1  UNL1        0.0909
     13 C          -7.7027  -14.7520   24.3988 C.3     1  UNL1        0.0232
     14 C          -8.6591  -15.9070   24.4350 C.3     1  UNL1        0.0232
     15 C          -7.9653  -17.1016   23.8505 C.3     1  UNL1        0.0909
     16 C          -9.6676  -19.2547   20.8254 C.3     1  UNL1        0.0990
     17 C         -10.8175  -18.7762   21.6614 C.ar    1  UNL1       -0.0139
     18 C         -10.8540  -19.0790   23.1300 C.ar    1  UNL1       -0.0038
     19 C         -12.0038  -18.6006   23.9661 C.ar    1  UNL1       -0.0003
     20 C         -13.1171  -17.8194   23.3335 C.ar    1  UNL1       -0.0000
     21 C         -13.0806  -17.5165   21.8648 C.ar    1  UNL1       -0.0003
     22 C         -11.9308  -17.9950   21.0287 C.ar    1  UNL1       -0.0038
     23 C          -8.8494  -20.4534   18.6705 C.3     1  UNL1        0.0009
     24 C          -9.8957  -19.6645   19.4006 C.3     1  UNL1        0.0135
@<TRIPOS>BOND
     1    23    24    1
     2    16    24    1
     3    16     1    1
     4     1     2    2
     5     1     3   am
     6     3     5    1
     7     5     6   ar
     8     6     7   ar
     9     7     8   ar
    10     8     9   ar
    11     9    10   ar
    12    10    11    1
    13    11    12    1
    14    12    13    1
    15    13    14    1
    16    14    15    1
    17    16    17    1
    18    17    18   ar
    19    18    19   ar
    20    19    20   ar
    21    20    21   ar
    22    21    22   ar
    23    10     5   ar
    24    15    11    1
    25    22    17   ar
    26     3     4    1
@<TRIPOS>MOLECULE
*****
 24 26 0 0 0
SMALL
GASTEIGER

@<TRIPOS>ATOM
      1 C          -7.5197  -18.9662   21.5994 C.2     1  UNL1        0.2298
      2 O          -7.8020  -18.1777   20.3551 O.2     1  UNL1       -0.2744
      3 N          -8.5440  -19.0336   22.6932 N.am    1  UNL1       -0.2827
      4 H          -8.3587  -19.5512   23.5099 H       1  UNL1        0.1549
      5 C          -9.8506  -18.3124   22.5425 C.ar    1  UNL1        0.0638
      6 C         -10.9800  -18.9552   21.7933 C.ar    1  UNL1        0.0159
      7 C         -12.2866  -18.2340   21.6427 C.ar    1  UNL1        0.0014
      8 C         -12.4638  -16.8701   22.2413 C.ar    1  UNL1        0.0014
      9 C         -11.3344  -16.2273   22.9905 C.ar    1  UNL1        0.0158
     10 C         -10.0278  -16.9485   23.1411 C.ar    1  UNL1        0.0615
     11 N          -8.8984  -16.3057   23.8903 N.pl3   1  UNL1       -0.3065
     12 C          -8.6343  -16.4274   25.3618 C.3     1  UNL1        0.0909
     13 C          -7.4074  -15.6253   25.6805 C.3     1  UNL1        0.0232
     14 C          -6.9133  -15.0079   24.4059 C.3     1  UNL1        0.0232
     15 C          -7.8348  -15.4284   23.2995 C.3     1  UNL1        0.0909
     16 C          -6.2131  -19.6875   21.7501 C.3     1  UNL1        0.0990
     17 C          -4.9818  -18.9322   22.1544 C.ar    1  UNL1       -0.0139
     18 C          -3.6367  -19.3667   21.6525 C.ar    1  UNL1       -0.0038
     19 C          -2.4055  -18.6114   22.0569 C.ar    1  UNL1       -0.0003
     20 C          -2.5192  -17.4215   22.9630 C.ar    1  UNL1       -0.0000
     21 C          -3.8644  -16.9869   23.4650 C.ar    1  UNL1       -0.0003
     22 C          -5.0956  -17.7422   23.0606 C.ar    1  UNL1       -0.0038
     23 C          -6.0291  -21.6789   20.0918 C.3     1  UNL1        0.0009
     24 C          -6.1377  -21.1639   21.4963 C.3     1  UNL1        0.0135
@<TRIPOS>BOND
     1    23    24    1
     2    16    24    1
     3    16     1    1
     4     1     2    2
     5     1     3   am
     6     3     5    1
     7     5     6   ar
     8     6     7   ar
     9     7     8   ar
    10     8     9   ar
    11     9    10   ar
    12    10    11    1
    13    11    12    1
    14    12    13    1
    15    13    14    1
    16    14    15    1
    17    16    17    1
    18    17    18   ar
    19    18    19   ar
    20    19    20   ar
    21    20    21   ar
    22    21    22   ar
    23    10     5   ar
    24    15    11    1
    25    22    17   ar
    26     3     4    1
@<TRIPOS>MOLECULE
*****
 24 26 0 0 0
SMALL
GASTEIGER

@<TRIPOS>ATOM
      1 C          -7.3570  -16.4953   23.4670 C.2     1  UNL1        0.2298
      2 O          -8.3079  -17.0853   24.4659 O.2     1  UNL1       -0.2744
      3 N          -7.7594  -16.3785   22.0268 N.am    1  UNL1       -0.2827
      4 H          -7.1353  -15.9913   21.3712 H       1  UNL1        0.1549
      5 C          -9.1127  -16.8517   21.5853 C.ar    1  UNL1        0.0638
      6 C         -10.2779  -15.9071   21.5963 C.ar    1  UNL1        0.0159
      7 C         -11.6311  -16.3803   21.1549 C.ar    1  UNL1        0.0014
      8 C         -11.8191  -17.7980   20.7025 C.ar    1  UNL1        0.0014
      9 C         -10.6540  -18.7426   20.6916 C.ar    1  UNL1        0.0158
     10 C          -9.3007  -18.2694   21.1330 C.ar    1  UNL1        0.0615
     11 N          -8.1356  -19.2140   21.1220 N.pl3   1  UNL1       -0.3065
     12 C          -7.2979  -19.5670   19.9289 C.3     1  UNL1        0.0909
     13 C          -6.2481  -20.5426   20.3717 C.3     1  UNL1        0.0232
     14 C          -6.4369  -20.7926   21.8386 C.3     1  UNL1        0.0232
     15 C          -7.6035  -19.9715   22.3023 C.3     1  UNL1        0.0909
     16 C          -6.0038  -16.0221   23.9085 C.3     1  UNL1        0.0990
     17 C          -4.7678  -16.5865   23.2730 C.ar    1  UNL1       -0.0139
     18 C          -4.5940  -18.0721   23.1602 C.ar    1  UNL1       -0.0038
     19 C          -3.3580  -18.6365   22.5247 C.ar    1  UNL1       -0.0003
     20 C          -2.2959  -17.7153   22.0020 C.ar    1  UNL1       -0.0000
     21 C          -2.4697  -16.2297   22.1148 C.ar    1  UNL1       -0.0003
     22 C          -3.7056  -15.6653   22.7503 C.ar    1  UNL1       -0.0038
     23 C          -5.8488  -15.4000   26.4261 C.3     1  UNL1        0.0009
     24 C          -5.8865  -14.9846   24.9854 C.3     1  UNL1        0.0135
@<TRIPOS>BOND
     1    23    24    1
     2    16    24    1
     3    16     1    1
     4     1     2    2
     5     1     3   am
     6     3     5    1
     7     5     6   ar
     8     6     7   ar
     9     7     8   ar
    10     8     9   ar
    11     9    10   ar
    12    10    11    1
    13    11    12    1
    14    12    13    1
    15    13    14    1
    16    14    15    1
    17    16    17    1
    18    17    18   ar
    19    18    19   ar
    20    19    20   ar
    21    20    21   ar
    22    21    22   ar
    23    10     5   ar
    24    15    11    1
    25    22    17   ar
    26     3     4    1
@<TRIPOS>MOLECULE
*****
 24 26 0 0 0
SMALL
GASTEIGER

@<TRIPOS>ATOM
      1 C          -5.9925  -18.4798   22.1898 C.2     1  UNL1        0.2298
      2 O          -4.9127  -18.8958   23.1443 O.2     1  UNL1       -0.2744
      3 N          -6.8763  -17.3135   22.5193 N.am    1  UNL1       -0.2827
      4 H          -7.5850  -17.0405   21.8928 H       1  UNL1        0.1549
      5 C          -6.6803  -16.5631   23.8033 C.ar    1  UNL1        0.0638
      6 C          -5.3450  -15.9589   24.1225 C.ar    1  UNL1        0.0159
      7 C          -5.1490  -15.2085   25.4064 C.ar    1  UNL1        0.0014
      8 C          -6.2882  -15.0623   26.3711 C.ar    1  UNL1        0.0014
      9 C          -7.6236  -15.6665   26.0518 C.ar    1  UNL1        0.0158
     10 C          -7.8196  -16.4169   24.7679 C.ar    1  UNL1        0.0615
     11 N          -9.1549  -17.0210   24.4487 N.pl3   1  UNL1       -0.3065
     12 C          -9.7047  -18.2955   25.0175 C.3     1  UNL1        0.0909
     13 C         -11.0645  -18.5190   24.4250 C.3     1  UNL1        0.0232
     14 C         -11.3551  -17.3826   23.4899 C.3     1  UNL1        0.0232
     15 C         -10.1749  -16.4569   23.5046 C.3     1  UNL1        0.0909
     16 C          -6.1885  -19.2303   20.9059 C.3     1  UNL1        0.0990
     17 C          -7.5723  -19.4561   20.3729 C.ar    1  UNL1       -0.0139
     18 C          -8.7635  -19.2108   21.2509 C.ar    1  UNL1       -0.0038
     19 C         -10.1473  -19.4366   20.7179 C.ar    1  UNL1       -0.0003
     20 C         -10.3400  -19.9077   19.3069 C.ar    1  UNL1       -0.0000
     21 C          -9.1488  -20.1529   18.4288 C.ar    1  UNL1       -0.0003
     22 C          -7.7650  -19.9272   18.9618 C.ar    1  UNL1       -0.0038
     23 C          -3.9452  -18.8083   19.6652 C.3     1  UNL1        0.0009
     24 C          -5.0007  -19.7549   20.1550 C.3     1  UNL1        0.0135
@<TRIPOS>BOND
     1    23    24    1
     2    16    24    1
     3    16     1    1
     4     1     2    2
     5     1     3   am
     6     3     5    1
     7     5     6   ar
     8     6     7   ar
     9     7     8   ar
    10     8     9   ar
    11     9    10   ar
    12    10    11    1
    13    11    12    1
    14    12    13    1
    15    13    14    1
    16    14    15    1
    17    16    17    1
    18    17    18   ar
    19    18    19   ar
    20    19    20   ar
    21    20    21   ar
    22    21    22   ar
    23    10     5   ar
    24    15    11    1
    25    22    17   ar
    26     3     4    1
