@<TRIPOS>MOLECULE
*****
 22 25 0 0 0
SMALL
GASTEIGER

@<TRIPOS>ATOM
      1 O          -5.6990  -17.5551   22.6569 O.2     1  UNL1       -0.2742
      2 C          -6.5824  -18.6621   22.1630 C.2     1  UNL1        0.2352
      3 N          -5.9914  -19.8081   21.3966 N.am    1  UNL1       -0.3039
      4 H          -6.4854  -20.5780   21.0327 H       1  UNL1        0.1494
      5 C          -8.0570  -18.6232   22.4355 C.3     1  UNL1        0.1795
      6 C          -8.7390  -19.8127   23.0435 C.2     1  UNL1        0.0891
      7 N         -10.2136  -19.7738   23.3160 N.2     1  UNL1       -0.2469
      8 C         -11.0061  -18.5452   22.9803 C.ar    1  UNL1        0.0902
      9 C         -12.4617  -18.2169   23.1335 C.ar    1  UNL1        0.0267
     10 C         -12.6792  -16.8244   22.6202 C.ar    1  UNL1        0.0371
     11 S         -11.3581  -16.2921   22.1497 S.2     1  UNL1       -0.0820
     12 C         -10.3240  -17.3557   22.3723 C.ar    1  UNL1        0.0826
     13 C          -8.8495  -17.3946   22.0998 C.2     1  UNL1        0.1944
     14 O          -8.1674  -16.2051   21.4918 O.2     1  UNL1       -0.2899
     15 C          -3.3553  -19.3886   21.1938 C.3     1  UNL1        0.0875
     16 C          -3.1086  -18.8768   19.9622 C.3     1  UNL1        0.0919
     17 N          -2.9099  -18.5646   19.2268 N.3     1  UNL1       -0.2713
     18 C          -1.7785  -18.7918   20.1849 C.3     1  UNL1        0.0722
     19 C          -2.0513  -19.3578   21.5469 C.3     1  UNL1        0.0191
     20 C          -3.4556  -19.6965   21.9508 C.3     1  UNL1        0.0221
     21 C          -4.5871  -19.4693   20.9927 C.3     1  UNL1        0.0191
     22 C          -4.3143  -18.9033   19.6305 C.3     1  UNL1        0.0722
@<TRIPOS>BOND
     1     1     2    2
     2     2     3   am
     3    15     3    1
     4    15    16    1
     5    16    17    1
     6    17    18    1
     7    18    19    1
     8    19    20    1
     9    20    21    1
    10    21    22    1
    11     2     5    1
    12     5     6    1
    13     6     7    2
    14     7     8    1
    15     8     9   ar
    16     9    10   ar
    17    10    11   ar
    18    11    12   ar
    19    12    13    1
    20    13    14    2
    21    20    15    1
    22    13     5    1
    23    22    17    1
    24    12     8   ar
    25     3     4    1
@<TRIPOS>MOLECULE
*****
 22 25 0 0 0
SMALL
GASTEIGER

@<TRIPOS>ATOM
      1 O          -9.2803  -18.7375   20.7224 O.2     1  UNL1       -0.2742
      2 C          -8.3099  -18.7552   21.8660 C.2     1  UNL1        0.2352
      3 N          -8.7822  -18.4443   23.2553 N.am    1  UNL1       -0.3039
      4 H          -8.2255  -18.4303   24.0671 H       1  UNL1        0.1494
      5 C          -6.8671  -19.0838   21.6203 C.3     1  UNL1        0.1795
      6 C          -6.5009  -20.2377   20.7347 C.2     1  UNL1        0.0891
      7 N          -5.0580  -20.5663   20.4891 N.2     1  UNL1       -0.2469
      8 C          -3.9814  -19.7410   21.1292 C.ar    1  UNL1        0.0902
      9 C          -2.4849  -19.8248   21.0720 C.ar    1  UNL1        0.0267
     10 C          -1.9262  -18.7227   21.9224 C.ar    1  UNL1        0.0371
     11 S          -3.0774  -17.9577   22.5051 S.2     1  UNL1       -0.0820
     12 C          -4.3477  -18.5870   22.0148 C.ar    1  UNL1        0.0826
     13 C          -5.7905  -18.2585   22.2604 C.2     1  UNL1        0.1944
     14 O          -6.1567  -17.1046   23.1461 O.2     1  UNL1       -0.2899
     15 C         -11.4074  -17.9344   23.1360 C.3     1  UNL1        0.0875
     16 C         -11.5648  -16.6622   22.6927 C.3     1  UNL1        0.0919
     17 N         -11.7103  -15.8966   22.4271 N.3     1  UNL1       -0.2713
     18 C         -12.9131  -16.7330   22.7484 C.3     1  UNL1        0.0722
     19 C         -12.7391  -18.1399   23.2386 C.3     1  UNL1        0.0191
     20 C         -11.3622  -18.7104   23.4076 C.3     1  UNL1        0.0221
     21 C         -10.1592  -17.8739   23.0863 C.3     1  UNL1        0.0191
     22 C         -10.3332  -16.4669   22.5961 C.3     1  UNL1        0.0722
@<TRIPOS>BOND
     1     1     2    2
     2     2     3   am
     3    15     3    1
     4    15    16    1
     5    16    17    1
     6    17    18    1
     7    18    19    1
     8    19    20    1
     9    20    21    1
    10    21    22    1
    11     2     5    1
    12     5     6    1
    13     6     7    2
    14     7     8    1
    15     8     9   ar
    16     9    10   ar
    17    10    11   ar
    18    11    12   ar
    19    12    13    1
    20    13    14    2
    21    20    15    1
    22    13     5    1
    23    22    17    1
    24    12     8   ar
    25     3     4    1
@<TRIPOS>MOLECULE
*****
 22 25 0 0 0
SMALL
GASTEIGER

@<TRIPOS>ATOM
      1 O          -8.9562  -16.5202   22.6686 O.2     1  UNL1       -0.2742
      2 C          -8.3380  -17.8671   22.4374 C.2     1  UNL1        0.2352
      3 N          -9.2122  -19.0721   22.2544 N.am    1  UNL1       -0.3039
      4 H          -8.9034  -19.9938   22.0982 H       1  UNL1        0.1494
      5 C          -6.8454  -18.0090   22.3892 C.3     1  UNL1        0.1795
      6 C          -5.9816  -17.1480   23.2622 C.2     1  UNL1        0.0891
      7 N          -4.4890  -17.2900   23.2139 N.2     1  UNL1       -0.2469
      8 C          -3.8605  -18.2931   22.2927 C.ar    1  UNL1        0.0902
      9 C          -2.4289  -18.6557   22.0302 C.ar    1  UNL1        0.0267
     10 C          -2.4080  -19.7409   20.9949 C.ar    1  UNL1        0.0371
     11 S          -3.8267  -20.0490   20.6176 S.2     1  UNL1       -0.0820
     12 C          -4.7244  -19.1541   21.4197 C.ar    1  UNL1        0.0826
     13 C          -6.2169  -19.0121   21.4679 C.2     1  UNL1        0.1944
     14 O          -7.0809  -19.8732   20.5949 O.2     1  UNL1       -0.2899
     15 C         -11.7610  -18.2724   22.4281 C.3     1  UNL1        0.0875
     16 C         -12.1504  -18.4004   23.7210 C.3     1  UNL1        0.0919
     17 N         -12.4321  -18.4606   24.4923 N.3     1  UNL1       -0.2713
     18 C         -13.3960  -17.9425   23.4665 C.3     1  UNL1        0.0722
     19 C         -12.9654  -17.8010   22.0367 C.3     1  UNL1        0.0191
     20 C         -11.5708  -18.1775   21.6326 C.3     1  UNL1        0.0221
     21 C         -10.6068  -18.6956   22.6585 C.3     1  UNL1        0.0191
     22 C         -11.0375  -18.8372   24.0884 C.3     1  UNL1        0.0722
@<TRIPOS>BOND
     1     1     2    2
     2     2     3   am
     3    15     3    1
     4    15    16    1
     5    16    17    1
     6    17    18    1
     7    18    19    1
     8    19    20    1
     9    20    21    1
    10    21    22    1
    11     2     5    1
    12     5     6    1
    13     6     7    2
    14     7     8    1
    15     8     9   ar
    16     9    10   ar
    17    10    11   ar
    18    11    12   ar
    19    12    13    1
    20    13    14    2
    21    20    15    1
    22    13     5    1
    23    22    17    1
    24    12     8   ar
    25     3     4    1
@<TRIPOS>MOLECULE
*****
 22 25 0 0 0
SMALL
GASTEIGER

@<TRIPOS>ATOM
      1 O          -5.8761  -17.1004   22.7135 O.2     1  UNL1       -0.2742
      2 C          -6.9417  -18.0114   22.1801 C.2     1  UNL1        0.2352
      3 N          -6.5611  -19.2897   21.4938 N.am    1  UNL1       -0.3039
      4 H          -7.1835  -19.9501   21.1120 H       1  UNL1        0.1494
      5 C          -8.3880  -17.6440   22.3329 C.3     1  UNL1        0.1795
      6 C          -8.8958  -16.3481   21.7739 C.2     1  UNL1        0.0891
      7 N         -10.3422  -15.9808   21.9267 N.2     1  UNL1       -0.2469
      8 C         -11.2806  -16.9096   22.6385 C.ar    1  UNL1        0.0902
      9 C         -12.7470  -16.8174   22.9405 C.ar    1  UNL1        0.0267
     10 C         -13.1454  -18.0564   23.6862 C.ar    1  UNL1        0.0371
     11 S         -11.9253  -18.9144   23.8450 S.2     1  UNL1       -0.0820
     12 C         -10.7728  -18.2056   23.1975 C.ar    1  UNL1        0.0826
     13 C          -9.3265  -18.5728   23.0447 C.2     1  UNL1        0.1944
     14 O          -8.8186  -19.8688   23.6036 O.2     1  UNL1       -0.2899
     15 C          -3.8894  -19.4570   21.4910 C.3     1  UNL1        0.0875
     16 C          -3.4568  -19.1921   20.2331 C.3     1  UNL1        0.0919
     17 N          -3.1471  -19.0381   19.4860 N.3     1  UNL1       -0.2713
     18 C          -2.1576  -19.3518   20.5688 C.3     1  UNL1        0.0722
     19 C          -2.6359  -19.6447   21.9599 C.3     1  UNL1        0.0191
     20 C          -4.1037  -19.6240   22.2683 C.3     1  UNL1        0.0221
     21 C          -5.0933  -19.3104   21.1854 C.3     1  UNL1        0.0191
     22 C          -4.6149  -19.0174   19.7942 C.3     1  UNL1        0.0722
@<TRIPOS>BOND
     1     1     2    2
     2     2     3   am
     3    15     3    1
     4    15    16    1
     5    16    17    1
     6    17    18    1
     7    18    19    1
     8    19    20    1
     9    20    21    1
    10    21    22    1
    11     2     5    1
    12     5     6    1
    13     6     7    2
    14     7     8    1
    15     8     9   ar
    16     9    10   ar
    17    10    11   ar
    18    11    12   ar
    19    12    13    1
    20    13    14    2
    21    20    15    1
    22    13     5    1
    23    22    17    1
    24    12     8   ar
    25     3     4    1
@<TRIPOS>MOLECULE
*****
 22 25 0 0 0
SMALL
GASTEIGER

@<TRIPOS>ATOM
      1 O          -7.0989  -17.5627   23.0543 O.2     1  UNL1       -0.2742
      2 C          -6.2882  -18.6679   22.4452 C.2     1  UNL1        0.2352
      3 N          -6.9211  -20.0004   22.1736 N.am    1  UNL1       -0.3039
      4 H          -6.4750  -20.7841   21.7787 H       1  UNL1        0.1494
      5 C          -4.8443  -18.4407   22.1078 C.3     1  UNL1        0.1795
      6 C          -3.8601  -18.1280   23.1956 C.2     1  UNL1        0.0891
      7 N          -2.4162  -17.9008   22.8581 N.2     1  UNL1       -0.2469
      8 C          -1.9568  -17.9864   21.4328 C.ar    1  UNL1        0.0902
      9 C          -0.6076  -17.8120   20.8010 C.ar    1  UNL1        0.0267
     10 C          -0.7580  -18.0169   19.3227 C.ar    1  UNL1        0.0371
     11 S          -2.2002  -18.3179   19.0409 S.2     1  UNL1       -0.0820
     12 C          -2.9411  -18.2991   20.3450 C.ar    1  UNL1        0.0826
     13 C          -4.3849  -18.5262   20.6825 C.2     1  UNL1        0.1944
     14 O          -5.3692  -18.8389   19.5946 O.2     1  UNL1       -0.2899
     15 C          -9.4788  -19.8695   22.9529 C.3     1  UNL1        0.0875
     16 C         -10.1962  -19.3272   21.9375 C.3     1  UNL1        0.0919
     17 N         -10.6730  -19.0026   21.3500 N.3     1  UNL1       -0.2713
     18 C         -11.3587  -19.4032   22.6224 C.3     1  UNL1        0.0722
     19 C         -10.5652  -20.0029   23.7453 C.3     1  UNL1        0.0191
     20 C          -9.0861  -20.2019   23.5957 C.3     1  UNL1        0.0221
     21 C          -8.4003  -19.8013   22.3232 C.3     1  UNL1        0.0191
     22 C          -9.1938  -19.2016   21.2002 C.3     1  UNL1        0.0722
@<TRIPOS>BOND
     1     1     2    2
     2     2     3   am
     3    15     3    1
     4    15    16    1
     5    16    17    1
     6    17    18    1
     7    18    19    1
     8    19    20    1
     9    20    21    1
    10    21    22    1
    11     2     5    1
    12     5     6    1
    13     6     7    2
    14     7     8    1
    15     8     9   ar
    16     9    10   ar
    17    10    11   ar
    18    11    12   ar
    19    12    13    1
    20    13    14    2
    21    20    15    1
    22    13     5    1
    23    22    17    1
    24    12     8   ar
    25     3     4    1
@<TRIPOS>MOLECULE
*****
 22 25 0 0 0
SMALL
GASTEIGER

@<TRIPOS>ATOM
      1 O         -13.0539   -6.6878   16.4739 O.2     1  UNL1       -0.2742
      2 C         -13.9189   -7.1259   17.6182 C.2     1  UNL1        0.2352
      3 N         -13.3791   -7.1044   19.0175 N.am    1  UNL1       -0.3039
      4 H         -13.8660   -7.3711   19.8306 H       1  UNL1        0.1494
      5 C         -15.3239   -7.5856   17.3633 C.3     1  UNL1        0.1795
      6 C         -16.2247   -6.7849   16.4706 C.2     1  UNL1        0.0891
      7 N         -17.6296   -7.2446   16.2157 N.2     1  UNL1       -0.2469
      8 C         -18.1336   -8.5051   16.8537 C.ar    1  UNL1        0.0902
      9 C         -19.4602   -9.2022   16.7881 C.ar    1  UNL1        0.0267
     10 C         -19.3791  -10.4339   17.6404 C.ar    1  UNL1        0.0371
     11 S         -18.0025  -10.4980   18.2327 S.2     1  UNL1       -0.0820
     12 C         -17.2327   -9.3059   17.7465 C.ar    1  UNL1        0.0826
     13 C         -15.8278   -8.8462   18.0013 C.2     1  UNL1        0.1944
     14 O         -14.9269   -9.6470   18.8941 O.2     1  UNL1       -0.2899
     15 C         -10.8575   -6.2122   18.9120 C.3     1  UNL1        0.0875
     16 C         -10.8927   -4.8572   18.9621 C.3     1  UNL1        0.0919
     17 N         -10.8637   -4.0349   18.9898 N.3     1  UNL1       -0.2713
     18 C          -9.5476   -4.7478   18.8928 C.3     1  UNL1        0.0722
     19 C          -9.5086   -6.2463   18.8374 C.3     1  UNL1        0.0191
     20 C         -10.7858   -7.0318   18.8790 C.3     1  UNL1        0.0221
     21 C         -12.1020   -6.3189   18.9760 C.3     1  UNL1        0.0191
     22 C         -12.1410   -4.8203   19.0314 C.3     1  UNL1        0.0722
@<TRIPOS>BOND
     1     1     2    2
     2     2     3   am
     3    15     3    1
     4    15    16    1
     5    16    17    1
     6    17    18    1
     7    18    19    1
     8    19    20    1
     9    20    21    1
    10    21    22    1
    11     2     5    1
    12     5     6    1
    13     6     7    2
    14     7     8    1
    15     8     9   ar
    16     9    10   ar
    17    10    11   ar
    18    11    12   ar
    19    12    13    1
    20    13    14    2
    21    20    15    1
    22    13     5    1
    23    22    17    1
    24    12     8   ar
    25     3     4    1
@<TRIPOS>MOLECULE
*****
 22 25 0 0 0
SMALL
GASTEIGER

@<TRIPOS>ATOM
      1 O          -3.1015  -15.6958   22.1551 O.2     1  UNL1       -0.2742
      2 C          -4.0916  -16.6954   22.6750 C.2     1  UNL1        0.2352
      3 N          -4.2385  -18.0266   21.9997 N.am    1  UNL1       -0.3039
      4 H          -4.8568  -18.7456   22.2643 H       1  UNL1        0.1494
      5 C          -4.9349  -16.3637   23.8705 C.3     1  UNL1        0.1795
      6 C          -4.2933  -16.1837   25.2142 C.2     1  UNL1        0.0891
      7 N          -5.1366  -15.8520   26.4097 N.2     1  UNL1       -0.2469
      8 C          -6.6215  -15.7005   26.2611 C.ar    1  UNL1        0.0902
      9 C          -7.7017  -15.3795   27.2512 C.ar    1  UNL1        0.0267
     10 C          -9.0108  -15.3612   26.5193 C.ar    1  UNL1        0.0371
     11 S          -8.7398  -15.6709   25.0768 S.2     1  UNL1       -0.0820
     12 C          -7.2631  -15.8805   24.9173 C.ar    1  UNL1        0.0826
     13 C          -6.4198  -16.2122   23.7219 C.2     1  UNL1        0.1944
     14 O          -7.0614  -16.3922   22.3781 O.2     1  UNL1       -0.2899
     15 C          -2.5212  -18.1011   19.9476 C.3     1  UNL1        0.0875
     16 C          -1.2820  -18.3292   20.4496 C.3     1  UNL1        0.0919
     17 N          -0.5121  -18.4662   20.7072 N.3     1  UNL1       -0.2713
     18 C          -0.7045  -18.3075   19.2281 C.3     1  UNL1        0.0722
     19 C          -2.0749  -18.0552   18.6729 C.3     1  UNL1        0.0191
     20 C          -3.2529  -17.9616   19.5967 C.3     1  UNL1        0.0221
     21 C          -3.0605  -18.1203   21.0759 C.3     1  UNL1        0.0191
     22 C          -1.6900  -18.3726   21.6311 C.3     1  UNL1        0.0722
@<TRIPOS>BOND
     1     1     2    2
     2     2     3   am
     3    15     3    1
     4    15    16    1
     5    16    17    1
     6    17    18    1
     7    18    19    1
     8    19    20    1
     9    20    21    1
    10    21    22    1
    11     2     5    1
    12     5     6    1
    13     6     7    2
    14     7     8    1
    15     8     9   ar
    16     9    10   ar
    17    10    11   ar
    18    11    12   ar
    19    12    13    1
    20    13    14    2
    21    20    15    1
    22    13     5    1
    23    22    17    1
    24    12     8   ar
    25     3     4    1
@<TRIPOS>MOLECULE
*****
 22 25 0 0 0
SMALL
GASTEIGER

@<TRIPOS>ATOM
      1 O         -13.8325   -5.7632   20.4422 O.2     1  UNL1       -0.2742
      2 C         -14.3791   -6.2831   19.1458 C.2     1  UNL1        0.2352
      3 N         -13.5305   -6.2557   17.9092 N.am    1  UNL1       -0.3039
      4 H         -13.7975   -6.5720   17.0160 H       1  UNL1        0.1494
      5 C         -15.7744   -6.8306   19.0858 C.3     1  UNL1        0.1795
      6 C         -16.9336   -5.9776   19.5083 C.2     1  UNL1        0.0891
      7 N         -18.3289   -6.5250   19.4484 N.2     1  UNL1       -0.2469
      8 C         -18.5649   -7.9256   18.9658 C.ar    1  UNL1        0.0902
      9 C         -19.8188   -8.7316   18.7985 C.ar    1  UNL1        0.0267
     10 C         -19.4345  -10.0827   18.2726 C.ar    1  UNL1        0.0371
     11 S         -17.9431  -10.1118   18.1148 S.2     1  UNL1       -0.0820
     12 C         -17.4056   -8.7786   18.5433 C.ar    1  UNL1        0.0826
     13 C         -16.0104   -8.2311   18.6033 C.2     1  UNL1        0.1944
     14 O         -14.8512   -9.0841   18.1808 O.2     1  UNL1       -0.2899
     15 C         -11.1614   -5.1939   18.5618 C.3     1  UNL1        0.0875
     16 C         -10.3187   -6.2120   18.8671 C.3     1  UNL1        0.0919
     17 N          -9.7714   -6.7955   19.0614 N.3     1  UNL1       -0.2713
     18 C          -9.2897   -5.3768   19.1309 C.3     1  UNL1        0.0722
     19 C         -10.2215   -4.2509   18.7932 C.3     1  UNL1        0.0191
     20 C         -11.6351   -4.5439   18.3860 C.3     1  UNL1        0.0221
     21 C         -12.1169   -5.9627   18.3165 C.3     1  UNL1        0.0191
     22 C         -11.1850   -7.0886   18.6542 C.3     1  UNL1        0.0722
@<TRIPOS>BOND
     1     1     2    2
     2     2     3   am
     3    15     3    1
     4    15    16    1
     5    16    17    1
     6    17    18    1
     7    18    19    1
     8    19    20    1
     9    20    21    1
    10    21    22    1
    11     2     5    1
    12     5     6    1
    13     6     7    2
    14     7     8    1
    15     8     9   ar
    16     9    10   ar
    17    10    11   ar
    18    11    12   ar
    19    12    13    1
    20    13    14    2
    21    20    15    1
    22    13     5    1
    23    22    17    1
    24    12     8   ar
    25     3     4    1
@<TRIPOS>MOLECULE
*****
 22 25 0 0 0
SMALL
GASTEIGER

@<TRIPOS>ATOM
      1 O         -13.8831   -6.2730   19.4822 O.2     1  UNL1       -0.2742
      2 C         -14.1473   -7.4837   18.6372 C.2     1  UNL1        0.2352
      3 N         -13.0376   -8.0944   17.8338 N.am    1  UNL1       -0.3039
      4 H         -13.1107   -8.8851   17.2518 H       1  UNL1        0.1494
      5 C         -15.5214   -8.0840   18.5956 C.3     1  UNL1        0.1795
      6 C         -16.0902   -8.7409   19.8182 C.2     1  UNL1        0.0891
      7 N         -17.4643   -9.3412   19.7766 N.2     1  UNL1       -0.2469
      8 C         -18.2695   -9.2845   18.5123 C.ar    1  UNL1        0.0902
      9 C         -19.6418   -9.7860   18.1730 C.ar    1  UNL1        0.0267
     10 C         -19.9211   -9.4391   16.7407 C.ar    1  UNL1        0.0371
     11 S         -18.7214   -8.7232   16.1947 S.2     1  UNL1       -0.0820
     12 C         -17.7006   -8.6276   17.2896 C.ar    1  UNL1        0.0826
     13 C         -16.3265   -8.0274   17.3313 C.2     1  UNL1        0.1944
     14 O         -15.7576   -7.3705   16.1086 O.2     1  UNL1       -0.2899
     15 C         -10.8230   -6.6530   18.2629 C.3     1  UNL1        0.0875
     16 C         -10.7527   -5.7008   17.2996 C.3     1  UNL1        0.0919
     17 N         -10.6671   -5.1067   16.7361 N.3     1  UNL1       -0.2713
     18 C          -9.5986   -5.1925   17.7851 C.3     1  UNL1        0.0722
     19 C          -9.6762   -6.2456   18.8505 C.3     1  UNL1        0.0191
     20 C         -10.8226   -7.2129   18.8667 C.3     1  UNL1        0.0221
     21 C         -11.8912   -7.1271   17.8176 C.3     1  UNL1        0.0191
     22 C         -11.8135   -6.0739   16.7522 C.3     1  UNL1        0.0722
@<TRIPOS>BOND
     1     1     2    2
     2     2     3   am
     3    15     3    1
     4    15    16    1
     5    16    17    1
     6    17    18    1
     7    18    19    1
     8    19    20    1
     9    20    21    1
    10    21    22    1
    11     2     5    1
    12     5     6    1
    13     6     7    2
    14     7     8    1
    15     8     9   ar
    16     9    10   ar
    17    10    11   ar
    18    11    12   ar
    19    12    13    1
    20    13    14    2
    21    20    15    1
    22    13     5    1
    23    22    17    1
    24    12     8   ar
    25     3     4    1
