@<TRIPOS>MOLECULE
*****
 29 32 0 0 0
SMALL
GASTEIGER

@<TRIPOS>ATOM
      1 N          -7.7159  -20.5639   21.5473 N.pl3   1  UNL1       -0.2927
      2 H          -7.9874  -21.5019   21.4219 H       1  UNL1        0.1541
      3 C          -4.2845  -18.5701   21.5403 C.ar    1  UNL1        0.1429
      4 C          -5.6692  -19.0069   21.9169 C.ar    1  UNL1        0.0516
      5 C          -6.3312  -20.1271   21.1707 C.ar    1  UNL1        0.0528
      6 C          -5.6085  -20.8106   20.0480 C.ar    1  UNL1        0.0150
      7 C          -4.2238  -20.3738   19.6714 C.ar    1  UNL1        0.0074
      8 C          -3.5618  -19.2535   20.4176 C.ar    1  UNL1        0.0702
      9 C          -2.1771  -18.8167   20.0410 C.ar    1  UNL1        0.1693
     10 C          -1.7791  -18.1627   18.7511 C.ar    1  UNL1        0.1397
     11 N          -0.3033  -17.8991   18.8011 N.ar    1  UNL1       -0.2026
     12 C           0.2109  -18.3902   20.1220 C.ar    1  UNL1        0.2851
     13 O          -0.9472  -18.9573   20.8882 O.2     1  UNL1       -0.4310
     14 C          -3.6426  -17.4326   23.7863 C.3     1  UNL1        0.2525
     15 O          -3.6225  -17.4498   22.2865 O.3     1  UNL1       -0.4713
     16 C          -8.6870  -19.5715   22.1150 C.ar    1  UNL1        0.1629
     17 N         -10.1751  -19.5875   21.9272 N.ar    1  UNL1       -0.2287
     18 C         -10.7482  -18.4148   22.6663 C.ar    1  UNL1        0.0636
     19 C         -12.2003  -18.0474   22.7467 C.3     1  UNL1        0.0524
     20 C          -9.6143  -17.6740   23.3109 C.ar    1  UNL1        0.0278
     21 S          -8.3404  -18.3889   22.9702 S.2     1  UNL1       -0.0558
     22 C          -9.7334  -16.4357   24.1491 C.3     1  UNL1        0.0605
     23 C          -8.7216  -16.1550   25.2203 C.ar    1  UNL1       -0.0164
     24 C          -9.0210  -16.5106   26.6465 C.ar    1  UNL1       -0.0039
     25 C          -8.0092  -16.2298   27.7177 C.ar    1  UNL1        0.0006
     26 C          -6.6980  -15.5935   27.3628 C.ar    1  UNL1        0.0114
     27 C          -6.3987  -15.2380   25.9366 C.ar    1  UNL1        0.0574
     28 CL         -5.0875  -14.6016   25.5816 Cl      1  UNL1       -0.0823
     29 C          -7.4104  -15.5187   24.8654 C.ar    1  UNL1        0.0075
@<TRIPOS>BOND
     1    14    15    1
     2    15     3    1
     3     3     4   ar
     4     4     5   ar
     5     5     1    1
     6     1    16    1
     7    16    17   ar
     8    17    18   ar
     9    18    19    1
    10    18    20   ar
    11    20    22    1
    12    22    23    1
    13    23    24   ar
    14    24    25   ar
    15    25    26   ar
    16    26    27   ar
    17    27    28    1
    18    27    29   ar
    19    20    21   ar
    20     5     6   ar
    21     6     7   ar
    22     7     8   ar
    23     8     9    1
    24     9    10   ar
    25    10    11   ar
    26    11    12   ar
    27    12    13   ar
    28     8     3   ar
    29    13     9   ar
    30    21    16   ar
    31    29    23   ar
    32     1     2    1
@<TRIPOS>MOLECULE
*****
 29 32 0 0 0
SMALL
GASTEIGER

@<TRIPOS>ATOM
      1 N         -11.2553   -2.9695   19.2202 N.pl3   1  UNL1       -0.2927
      2 H         -10.4620   -2.3979   19.3343 H       1  UNL1        0.1541
      3 C         -14.4875   -0.7152   18.7499 C.ar    1  UNL1        0.1429
      4 C         -13.1158   -1.2865   18.5449 C.ar    1  UNL1        0.0516
      5 C         -12.6271   -2.3983   19.4253 C.ar    1  UNL1        0.0528
      6 C         -13.5101   -2.9388   20.5106 C.ar    1  UNL1        0.0150
      7 C         -14.8818   -2.3675   20.7156 C.ar    1  UNL1        0.0074
      8 C         -15.3705   -1.2557   19.8352 C.ar    1  UNL1        0.0702
      9 C         -16.7423   -0.6845   20.0403 C.ar    1  UNL1        0.1693
     10 C         -18.0377   -1.4250   19.8872 C.ar    1  UNL1        0.1397
     11 N         -19.1555   -0.4706   20.1867 N.ar    1  UNL1       -0.2026
     12 C         -18.5508    0.8599   20.5249 C.ar    1  UNL1        0.2851
     13 O         -17.0594    0.7277   20.4344 O.2     1  UNL1       -0.4310
     14 C         -14.3170    1.7428   17.9257 C.3     1  UNL1        0.2525
     15 O         -14.9762    0.3966   17.8695 O.3     1  UNL1       -0.4713
     16 C         -11.0925   -4.4117   18.8414 C.ar    1  UNL1        0.1629
     17 N          -9.9494   -5.3018   19.2302 N.ar    1  UNL1       -0.2287
     18 C         -10.1945   -6.6573   18.6363 C.ar    1  UNL1        0.0636
     19 C          -9.3017   -7.8547   18.7741 C.3     1  UNL1        0.0524
     20 C         -11.4891   -6.6050   17.8806 C.ar    1  UNL1        0.0278
     21 S         -12.0441   -5.2172   18.0073 S.2     1  UNL1       -0.0558
     22 C         -12.1183   -7.7410   17.1299 C.3     1  UNL1        0.0605
     23 C         -13.6060   -7.9301   17.1643 C.ar    1  UNL1       -0.0164
     24 C         -14.4418   -7.5182   15.9888 C.ar    1  UNL1       -0.0039
     25 C         -15.9294   -7.7073   16.0232 C.ar    1  UNL1        0.0006
     26 C         -16.5813   -8.3083   17.2331 C.ar    1  UNL1        0.0114
     27 C         -15.7454   -8.7202   18.4086 C.ar    1  UNL1        0.0574
     28 CL        -16.3972   -9.3212   19.6186 Cl      1  UNL1       -0.0823
     29 C         -14.2578   -8.5311   18.3742 C.ar    1  UNL1        0.0075
@<TRIPOS>BOND
     1    14    15    1
     2    15     3    1
     3     3     4   ar
     4     4     5   ar
     5     5     1    1
     6     1    16    1
     7    16    17   ar
     8    17    18   ar
     9    18    19    1
    10    18    20   ar
    11    20    22    1
    12    22    23    1
    13    23    24   ar
    14    24    25   ar
    15    25    26   ar
    16    26    27   ar
    17    27    28    1
    18    27    29   ar
    19    20    21   ar
    20     5     6   ar
    21     6     7   ar
    22     7     8   ar
    23     8     9    1
    24     9    10   ar
    25    10    11   ar
    26    11    12   ar
    27    12    13   ar
    28     8     3   ar
    29    13     9   ar
    30    21    16   ar
    31    29    23   ar
    32     1     2    1
@<TRIPOS>MOLECULE
*****
 29 32 0 0 0
SMALL
GASTEIGER

@<TRIPOS>ATOM
      1 N           8.0950   -3.8564   20.9539 N.pl3   1  UNL1       -0.2927
      2 H           8.9167   -3.4513   20.5933 H       1  UNL1        0.1541
      3 C           7.4575   -5.1585   24.6483 C.ar    1  UNL1        0.1429
      4 C           7.3951   -4.3069   23.4150 C.ar    1  UNL1        0.0516
      5 C           8.1575   -4.7081   22.1871 C.ar    1  UNL1        0.0528
      6 C           8.9822   -5.9609   22.1924 C.ar    1  UNL1        0.0150
      7 C           9.0447   -6.8125   23.4256 C.ar    1  UNL1        0.0074
      8 C           8.2823   -6.4113   24.6535 C.ar    1  UNL1        0.0702
      9 C           8.3447   -7.2630   25.8868 C.ar    1  UNL1        0.1693
     10 C           9.2043   -7.0108   27.0899 C.ar    1  UNL1        0.1397
     11 N           8.9493   -8.1083   28.0800 N.ar    1  UNL1       -0.2026
     12 C           7.9321   -9.0389   27.4889 C.ar    1  UNL1        0.2851
     13 O           7.5585   -8.5164   26.1334 O.2     1  UNL1       -0.4310
     14 C           7.0908   -3.5258   26.6356 C.3     1  UNL1        0.2525
     15 O           6.6951   -4.7572   25.8762 O.3     1  UNL1       -0.4713
     16 C           6.7807   -3.6221   20.2700 C.ar    1  UNL1        0.1629
     17 N           5.6539   -4.6065   20.1645 N.ar    1  UNL1       -0.2287
     18 C           4.5392   -3.9551   19.4009 C.ar    1  UNL1        0.0636
     19 C           3.2185   -4.5808   19.0630 C.3     1  UNL1        0.0524
     20 C           4.9771   -2.5680   19.0344 C.ar    1  UNL1        0.0278
     21 S           6.3625   -2.3623   19.5716 S.2     1  UNL1       -0.0558
     22 C           4.1713   -1.5632   18.2657 C.3     1  UNL1        0.0605
     23 C           3.0614   -0.8154   18.9433 C.ar    1  UNL1       -0.0164
     24 C           2.6806   -1.1543   20.3539 C.ar    1  UNL1       -0.0039
     25 C           1.5706   -0.4066   21.0315 C.ar    1  UNL1        0.0006
     26 C           0.8415    0.6801   20.2983 C.ar    1  UNL1        0.0114
     27 C           1.2224    1.0189   18.8875 C.ar    1  UNL1        0.0574
     28 CL          0.4933    2.1056   18.1543 Cl      1  UNL1       -0.0823
     29 C           2.3323    0.2712   18.2101 C.ar    1  UNL1        0.0075
@<TRIPOS>BOND
     1    14    15    1
     2    15     3    1
     3     3     4   ar
     4     4     5   ar
     5     5     1    1
     6     1    16    1
     7    16    17   ar
     8    17    18   ar
     9    18    19    1
    10    18    20   ar
    11    20    22    1
    12    22    23    1
    13    23    24   ar
    14    24    25   ar
    15    25    26   ar
    16    26    27   ar
    17    27    28    1
    18    27    29   ar
    19    20    21   ar
    20     5     6   ar
    21     6     7   ar
    22     7     8   ar
    23     8     9    1
    24     9    10   ar
    25    10    11   ar
    26    11    12   ar
    27    12    13   ar
    28     8     3   ar
    29    13     9   ar
    30    21    16   ar
    31    29    23   ar
    32     1     2    1
@<TRIPOS>MOLECULE
*****
 29 32 0 0 0
SMALL
GASTEIGER

@<TRIPOS>ATOM
      1 N         -10.4946   -2.7152   19.0291 N.pl3   1  UNL1       -0.2927
      2 H          -9.6595   -2.2668   19.2953 H       1  UNL1        0.1541
      3 C         -14.3056   -1.6653   19.3811 C.ar    1  UNL1        0.1429
      4 C         -13.0360   -2.4548   19.5021 C.ar    1  UNL1        0.0516
      5 C         -11.7643   -1.9257   18.9080 C.ar    1  UNL1        0.0528
      6 C         -11.7622   -0.6071   18.1930 C.ar    1  UNL1        0.0150
      7 C         -13.0319    0.1824   18.0720 C.ar    1  UNL1        0.0074
      8 C         -14.3035   -0.3467   18.6661 C.ar    1  UNL1        0.0702
      9 C         -15.5732    0.4428   18.5450 C.ar    1  UNL1        0.1693
     10 C         -15.7670    1.8704   18.9629 C.ar    1  UNL1        0.1397
     11 N         -17.1856    2.2532   18.6610 N.ar    1  UNL1       -0.2026
     12 C         -17.8685    1.0623   18.0565 C.ar    1  UNL1        0.2851
     13 O         -16.8720   -0.0566   17.9849 O.2     1  UNL1       -0.4310
     14 C         -16.1817   -3.4614   19.4466 C.3     1  UNL1        0.2525
     15 O         -15.5773   -2.1944   19.9751 O.3     1  UNL1       -0.4713
     16 C         -10.4972   -4.1880   18.7445 C.ar    1  UNL1        0.1629
     17 N          -9.5537   -5.1997   19.3241 N.ar    1  UNL1       -0.2287
     18 C          -9.9172   -6.5446   18.7681 C.ar    1  UNL1        0.0636
     19 C          -9.2326   -7.8422   19.0806 C.3     1  UNL1        0.0524
     20 C         -11.0854   -6.3641   17.8448 C.ar    1  UNL1        0.0278
     21 S         -11.4439   -4.9076   17.8302 S.2     1  UNL1       -0.0558
     22 C         -11.7743   -7.4494   17.0718 C.3     1  UNL1        0.0605
     23 C         -13.2614   -7.6162   17.1757 C.ar    1  UNL1       -0.0164
     24 C         -14.1314   -7.3470   15.9838 C.ar    1  UNL1       -0.0039
     25 C         -15.6185   -7.5138   16.0877 C.ar    1  UNL1        0.0006
     26 C         -16.2355   -7.9497   17.3836 C.ar    1  UNL1        0.0114
     27 C         -15.3654   -8.2189   18.5754 C.ar    1  UNL1        0.0574
     28 CL        -15.9825   -8.6548   19.8714 Cl      1  UNL1       -0.0823
     29 C         -13.8785   -8.0521   18.4715 C.ar    1  UNL1        0.0075
@<TRIPOS>BOND
     1    14    15    1
     2    15     3    1
     3     3     4   ar
     4     4     5   ar
     5     5     1    1
     6     1    16    1
     7    16    17   ar
     8    17    18   ar
     9    18    19    1
    10    18    20   ar
    11    20    22    1
    12    22    23    1
    13    23    24   ar
    14    24    25   ar
    15    25    26   ar
    16    26    27   ar
    17    27    28    1
    18    27    29   ar
    19    20    21   ar
    20     5     6   ar
    21     6     7   ar
    22     7     8   ar
    23     8     9    1
    24     9    10   ar
    25    10    11   ar
    26    11    12   ar
    27    12    13   ar
    28     8     3   ar
    29    13     9   ar
    30    21    16   ar
    31    29    23   ar
    32     1     2    1
@<TRIPOS>MOLECULE
*****
 29 32 0 0 0
SMALL
GASTEIGER

@<TRIPOS>ATOM
      1 N          -7.2389  -20.9980   22.2467 N.pl3   1  UNL1       -0.2927
      2 H          -7.3673  -21.9741   22.2391 H       1  UNL1        0.1541
      3 C          -4.0961  -18.6095   21.8361 C.ar    1  UNL1        0.1429
      4 C          -5.3645  -19.2034   22.3733 C.ar    1  UNL1        0.0516
      5 C          -5.9704  -20.4042   21.7094 C.ar    1  UNL1        0.0528
      6 C          -5.3081  -21.0112   20.5083 C.ar    1  UNL1        0.0150
      7 C          -4.0397  -20.4174   19.9711 C.ar    1  UNL1        0.0074
      8 C          -3.4338  -19.2166   20.6350 C.ar    1  UNL1        0.0702
      9 C          -2.1653  -18.6227   20.0977 C.ar    1  UNL1        0.1693
     10 C          -1.9696  -18.0584   18.7218 C.ar    1  UNL1        0.1397
     11 N          -0.5533  -17.5759   18.6158 N.ar    1  UNL1       -0.2026
     12 C           0.1263  -17.8420   19.9263 C.ar    1  UNL1        0.2851
     13 O          -0.8700  -18.4890   20.8421 O.2     1  UNL1       -0.4310
     14 C          -4.2343  -16.7007   23.5932 C.3     1  UNL1        0.2525
     15 O          -3.4901  -17.4087   22.5001 O.3     1  UNL1       -0.4713
     16 C          -8.3116  -20.1047   22.7955 C.ar    1  UNL1        0.1629
     17 N          -9.2611  -20.4462   23.9053 N.ar    1  UNL1       -0.2287
     18 C         -10.1595  -19.2655   24.1266 C.ar    1  UNL1        0.0636
     19 C         -11.2591  -19.1725   25.1426 C.3     1  UNL1        0.0524
     20 C          -9.7652  -18.1943   23.1535 C.ar    1  UNL1        0.0278
     21 S          -8.6231  -18.7129   22.3308 S.2     1  UNL1       -0.0558
     22 C         -10.4012  -16.8418   23.0255 C.3     1  UNL1        0.0605
     23 C         -10.5690  -16.2169   21.6722 C.ar    1  UNL1       -0.0164
     24 C         -11.6754  -16.6725   20.7676 C.ar    1  UNL1       -0.0039
     25 C         -11.8431  -16.0476   19.4143 C.ar    1  UNL1        0.0006
     26 C         -10.9044  -14.9671   18.9656 C.ar    1  UNL1        0.0114
     27 C          -9.7980  -14.5116   19.8702 C.ar    1  UNL1        0.0574
     28 CL         -8.8592  -13.4311   19.4215 Cl      1  UNL1       -0.0823
     29 C          -9.6302  -15.1365   21.2234 C.ar    1  UNL1        0.0075
@<TRIPOS>BOND
     1    14    15    1
     2    15     3    1
     3     3     4   ar
     4     4     5   ar
     5     5     1    1
     6     1    16    1
     7    16    17   ar
     8    17    18   ar
     9    18    19    1
    10    18    20   ar
    11    20    22    1
    12    22    23    1
    13    23    24   ar
    14    24    25   ar
    15    25    26   ar
    16    26    27   ar
    17    27    28    1
    18    27    29   ar
    19    20    21   ar
    20     5     6   ar
    21     6     7   ar
    22     7     8   ar
    23     8     9    1
    24     9    10   ar
    25    10    11   ar
    26    11    12   ar
    27    12    13   ar
    28     8     3   ar
    29    13     9   ar
    30    21    16   ar
    31    29    23   ar
    32     1     2    1
@<TRIPOS>MOLECULE
*****
 29 32 0 0 0
SMALL
GASTEIGER

@<TRIPOS>ATOM
      1 N           7.9082   -3.0454   21.6503 N.pl3   1  UNL1       -0.2927
      2 H           8.7724   -2.7274   21.3020 H       1  UNL1        0.1541
      3 C           7.7426   -5.5573   24.7184 C.ar    1  UNL1        0.1429
      4 C           7.8406   -5.0399   23.3139 C.ar    1  UNL1        0.0516
      5 C           7.8102   -3.5628   23.0549 C.ar    1  UNL1        0.0528
      6 C           7.6817   -2.6030   24.2004 C.ar    1  UNL1        0.0150
      7 C           7.5836   -3.1204   25.6049 C.ar    1  UNL1        0.0074
      8 C           7.6141   -4.5976   25.8639 C.ar    1  UNL1        0.0702
      9 C           7.5161   -5.1149   27.2685 C.ar    1  UNL1        0.1693
     10 C           6.3190   -5.0078   28.1660 C.ar    1  UNL1        0.1397
     11 N           6.6610   -5.6570   29.4743 N.ar    1  UNL1       -0.2026
     12 C           8.0695   -6.1653   29.3854 C.ar    1  UNL1        0.2851
     13 O           8.5979   -5.8303   28.0221 O.2     1  UNL1       -0.4310
     14 C           9.0814   -7.7681   24.9832 C.3     1  UNL1        0.2525
     15 O           7.7731   -7.0345   24.9773 O.3     1  UNL1       -0.4713
     16 C           6.6895   -3.0124   20.7765 C.ar    1  UNL1        0.1629
     17 N           5.7630   -4.1620   20.5118 N.ar    1  UNL1       -0.2287
     18 C           4.6842   -3.6842   19.5856 C.ar    1  UNL1        0.0636
     19 C           3.5456   -4.5068   19.0595 C.3     1  UNL1        0.0524
     20 C           4.9440   -2.2392   19.2778 C.ar    1  UNL1        0.0278
     21 S           6.1833   -1.8241   20.0138 S.2     1  UNL1       -0.0558
     22 C           4.1107   -1.3633   18.3899 C.3     1  UNL1        0.0605
     23 C           2.8827   -0.6954   18.9341 C.ar    1  UNL1       -0.0164
     24 C           2.2450   -1.2080   20.1913 C.ar    1  UNL1       -0.0039
     25 C           1.0170   -0.5402   20.7355 C.ar    1  UNL1        0.0006
     26 C           0.4267    0.6402   20.0225 C.ar    1  UNL1        0.0114
     27 C           1.0645    1.1526   18.7652 C.ar    1  UNL1        0.0574
     28 CL          0.4743    2.3330   18.0521 Cl      1  UNL1       -0.0823
     29 C           2.2924    0.4849   18.2211 C.ar    1  UNL1        0.0075
@<TRIPOS>BOND
     1    14    15    1
     2    15     3    1
     3     3     4   ar
     4     4     5   ar
     5     5     1    1
     6     1    16    1
     7    16    17   ar
     8    17    18   ar
     9    18    19    1
    10    18    20   ar
    11    20    22    1
    12    22    23    1
    13    23    24   ar
    14    24    25   ar
    15    25    26   ar
    16    26    27   ar
    17    27    28    1
    18    27    29   ar
    19    20    21   ar
    20     5     6   ar
    21     6     7   ar
    22     7     8   ar
    23     8     9    1
    24     9    10   ar
    25    10    11   ar
    26    11    12   ar
    27    12    13   ar
    28     8     3   ar
    29    13     9   ar
    30    21    16   ar
    31    29    23   ar
    32     1     2    1
@<TRIPOS>MOLECULE
*****
 29 32 0 0 0
SMALL
GASTEIGER

@<TRIPOS>ATOM
      1 N           7.5983   -3.1627   21.7016 N.pl3   1  UNL1       -0.2927
      2 H           8.4970   -3.0277   21.3231 H       1  UNL1        0.1541
      3 C           6.3612   -2.8399   25.4587 C.ar    1  UNL1        0.1429
      4 C           6.5247   -2.5704   23.9922 C.ar    1  UNL1        0.0516
      5 C           7.4348   -3.4322   23.1682 C.ar    1  UNL1        0.0528
      6 C           8.1815   -4.5634   23.8106 C.ar    1  UNL1        0.0150
      7 C           8.0181   -4.8328   25.2771 C.ar    1  UNL1        0.0074
      8 C           7.1079   -3.9711   26.1011 C.ar    1  UNL1        0.0702
      9 C           6.9445   -4.2406   27.5677 C.ar    1  UNL1        0.1693
     10 C           6.5833   -5.5580   28.1872 C.ar    1  UNL1        0.1397
     11 N           6.5291   -5.3716   29.6745 N.ar    1  UNL1       -0.2026
     12 C           6.8568   -3.9388   29.9744 C.ar    1  UNL1        0.2851
     13 O           7.1135   -3.2398   28.6722 O.2     1  UNL1       -0.4310
     14 C           4.1800   -1.4473   25.6889 C.3     1  UNL1        0.2525
     15 O           5.4511   -1.9781   26.2827 O.3     1  UNL1       -0.4713
     16 C           6.3924   -3.0989   20.8118 C.ar    1  UNL1        0.1629
     17 N           5.4448   -4.2268   20.5288 N.ar    1  UNL1       -0.2287
     18 C           4.3891   -3.7211   19.5909 C.ar    1  UNL1        0.0636
     19 C           3.2401   -4.5162   19.0454 C.3     1  UNL1        0.0524
     20 C           4.6842   -2.2806   19.2942 C.ar    1  UNL1        0.0278
     21 S           5.9222   -1.8961   20.0488 S.2     1  UNL1       -0.0558
     22 C           3.8820   -1.3823   18.4000 C.3     1  UNL1        0.0605
     23 C           2.6931   -0.6484   18.9457 C.ar    1  UNL1       -0.0164
     24 C           2.0315   -1.1237   20.2052 C.ar    1  UNL1       -0.0039
     25 C           0.8426   -0.3897   20.7509 C.ar    1  UNL1        0.0006
     26 C           0.3152    0.8195   20.0371 C.ar    1  UNL1        0.0114
     27 C           0.9768    1.2948   18.7776 C.ar    1  UNL1        0.0574
     28 CL          0.4494    2.5041   18.0637 Cl      1  UNL1       -0.0823
     29 C           2.1657    0.5609   18.2319 C.ar    1  UNL1        0.0075
@<TRIPOS>BOND
     1    14    15    1
     2    15     3    1
     3     3     4   ar
     4     4     5   ar
     5     5     1    1
     6     1    16    1
     7    16    17   ar
     8    17    18   ar
     9    18    19    1
    10    18    20   ar
    11    20    22    1
    12    22    23    1
    13    23    24   ar
    14    24    25   ar
    15    25    26   ar
    16    26    27   ar
    17    27    28    1
    18    27    29   ar
    19    20    21   ar
    20     5     6   ar
    21     6     7   ar
    22     7     8   ar
    23     8     9    1
    24     9    10   ar
    25    10    11   ar
    26    11    12   ar
    27    12    13   ar
    28     8     3   ar
    29    13     9   ar
    30    21    16   ar
    31    29    23   ar
    32     1     2    1
@<TRIPOS>MOLECULE
*****
 29 32 0 0 0
SMALL
GASTEIGER

@<TRIPOS>ATOM
      1 N          -4.6426    2.6446   21.0776 N.pl3   1  UNL1       -0.2927
      2 H          -5.0443    1.7847   20.8162 H       1  UNL1        0.1541
      3 C          -5.2674    3.9012   24.7899 C.ar    1  UNL1        0.1429
      4 C          -4.7082    3.1344   23.6283 C.ar    1  UNL1        0.0516
      5 C          -5.2019    3.4114   22.2392 C.ar    1  UNL1        0.0528
      6 C          -6.2548    4.4553   22.0117 C.ar    1  UNL1        0.0150
      7 C          -6.8140    5.2220   23.1733 C.ar    1  UNL1        0.0074
      8 C          -6.3204    4.9450   24.5624 C.ar    1  UNL1        0.0702
      9 C          -6.8796    5.7118   25.7240 C.ar    1  UNL1        0.1693
     10 C          -8.1949    6.4323   25.7536 C.ar    1  UNL1        0.1397
     11 N          -8.3500    7.0585   27.1078 N.ar    1  UNL1       -0.2026
     12 C          -7.1305    6.7250   27.9151 C.ar    1  UNL1        0.2851
     13 O          -6.2218    5.8927   27.0598 O.2     1  UNL1       -0.4310
     14 C          -3.3263    3.8285   26.5152 C.3     1  UNL1        0.2525
     15 O          -4.7738    3.6241   26.1790 O.3     1  UNL1       -0.4713
     16 C          -3.4712    3.1881   20.3144 C.ar    1  UNL1        0.1629
     17 N          -3.5206    3.8159   18.9529 N.ar    1  UNL1       -0.2287
     18 C          -2.1247    4.2150   18.5756 C.ar    1  UNL1        0.0636
     19 C          -1.7132    4.8787   17.2949 C.3     1  UNL1        0.0524
     20 C          -1.2127    3.8339   19.7039 C.ar    1  UNL1        0.0278
     21 S          -2.0449    3.1992   20.7785 S.2     1  UNL1       -0.0558
     22 C           0.2710    4.0496   19.7496 C.3     1  UNL1        0.0605
     23 C           1.1982    3.0023   19.2076 C.ar    1  UNL1       -0.0164
     24 C           0.7082    1.5992   19.0049 C.ar    1  UNL1       -0.0039
     25 C           1.6354    0.5520   18.4629 C.ar    1  UNL1        0.0006
     26 C           3.0525    0.9079   18.1237 C.ar    1  UNL1        0.0114
     27 C           3.5424    2.3111   18.3265 C.ar    1  UNL1        0.0574
     28 CL          4.9596    2.6671   17.9873 Cl      1  UNL1       -0.0823
     29 C           2.6153    3.3582   18.8684 C.ar    1  UNL1        0.0075
@<TRIPOS>BOND
     1    14    15    1
     2    15     3    1
     3     3     4   ar
     4     4     5   ar
     5     5     1    1
     6     1    16    1
     7    16    17   ar
     8    17    18   ar
     9    18    19    1
    10    18    20   ar
    11    20    22    1
    12    22    23    1
    13    23    24   ar
    14    24    25   ar
    15    25    26   ar
    16    26    27   ar
    17    27    28    1
    18    27    29   ar
    19    20    21   ar
    20     5     6   ar
    21     6     7   ar
    22     7     8   ar
    23     8     9    1
    24     9    10   ar
    25    10    11   ar
    26    11    12   ar
    27    12    13   ar
    28     8     3   ar
    29    13     9   ar
    30    21    16   ar
    31    29    23   ar
    32     1     2    1
@<TRIPOS>MOLECULE
*****
 29 32 0 0 0
SMALL
GASTEIGER

@<TRIPOS>ATOM
      1 N         -10.1806  -18.0083   21.1002 N.pl3   1  UNL1       -0.2927
      2 H         -11.0628  -17.7554   20.7436 H       1  UNL1        0.1541
      3 C          -8.0835  -15.7880   23.6345 C.ar    1  UNL1        0.1429
      4 C          -8.5768  -16.3942   22.3542 C.ar    1  UNL1        0.0516
      5 C          -9.6873  -17.4022   22.3806 C.ar    1  UNL1        0.0528
      6 C         -10.3045  -17.8040   23.6873 C.ar    1  UNL1        0.0150
      7 C          -9.8112  -17.1979   24.9676 C.ar    1  UNL1        0.0074
      8 C          -8.7007  -16.1899   24.9412 C.ar    1  UNL1        0.0702
      9 C          -8.2074  -15.5838   26.2216 C.ar    1  UNL1        0.1693
     10 C          -6.8185  -15.7022   26.7755 C.ar    1  UNL1        0.1397
     11 N          -6.7692  -14.9444   28.0691 N.ar    1  UNL1       -0.2026
     12 C          -8.1277  -14.3576   28.3146 C.ar    1  UNL1        0.2851
     13 O          -9.0165  -14.7527   27.1728 O.2     1  UNL1       -0.4310
     14 C          -5.5446  -15.2378   23.6023 C.3     1  UNL1        0.2525
     15 O          -6.9730  -14.7800   23.6081 O.3     1  UNL1       -0.4713
     16 C          -9.3298  -18.9997   20.3631 C.ar    1  UNL1        0.1629
     17 N          -9.7636  -19.8407   19.1993 N.ar    1  UNL1       -0.2287
     18 C          -8.5978  -20.6850   18.7773 C.ar    1  UNL1        0.0636
     19 C          -8.5880  -21.6746   17.6502 C.3     1  UNL1        0.0524
     20 C          -7.4434  -20.3658   19.6804 C.ar    1  UNL1        0.0278
     21 S          -7.8959  -19.3243   20.6605 S.2     1  UNL1       -0.0558
     22 C          -6.0766  -20.9802   19.6150 C.3     1  UNL1        0.0605
     23 C          -4.9067  -20.2748   20.2344 C.ar    1  UNL1       -0.0164
     24 C          -4.7836  -20.1950   21.7272 C.ar    1  UNL1       -0.0039
     25 C          -3.6137  -19.4895   22.3466 C.ar    1  UNL1        0.0006
     26 C          -2.5669  -18.8638   21.4732 C.ar    1  UNL1        0.0114
     27 C          -2.6901  -18.9436   19.9804 C.ar    1  UNL1        0.0574
     28 CL         -1.6433  -18.3179   19.1070 Cl      1  UNL1       -0.0823
     29 C          -3.8600  -19.6491   19.3610 C.ar    1  UNL1        0.0075
@<TRIPOS>BOND
     1    14    15    1
     2    15     3    1
     3     3     4   ar
     4     4     5   ar
     5     5     1    1
     6     1    16    1
     7    16    17   ar
     8    17    18   ar
     9    18    19    1
    10    18    20   ar
    11    20    22    1
    12    22    23    1
    13    23    24   ar
    14    24    25   ar
    15    25    26   ar
    16    26    27   ar
    17    27    28    1
    18    27    29   ar
    19    20    21   ar
    20     5     6   ar
    21     6     7   ar
    22     7     8   ar
    23     8     9    1
    24     9    10   ar
    25    10    11   ar
    26    11    12   ar
    27    12    13   ar
    28     8     3   ar
    29    13     9   ar
    30    21    16   ar
    31    29    23   ar
    32     1     2    1
