@<TRIPOS>MOLECULE
*****
 14 14 0 0 0
SMALL
GASTEIGER

@<TRIPOS>ATOM
      1 C         -10.2568  -18.7004   21.0895 C.ar    1  UNL1       -0.0115
      2 C          -8.9793  -18.9754   20.3532 C.ar    1  UNL1        0.0170
      3 C          -7.7954  -19.5320   21.0872 C.ar    1  UNL1        0.0986
      4 N          -7.8891  -19.8134   22.5575 N.ar    1  UNL1       -0.2417
      5 C          -9.1667  -19.5384   23.2938 C.ar    1  UNL1        0.1067
      6 C         -10.3505  -18.9819   22.5598 C.ar    1  UNL1        0.0569
      7 C         -11.5572  -16.6653   20.1318 C.3     1  UNL1        0.0050
      8 C         -11.4407  -18.1439   20.3554 C.3     1  UNL1        0.0271
      9 C         -11.6281  -18.7069   23.2962 C.1     1  UNL1       -0.0618
     10 C         -12.9057  -18.4319   24.0325 C.1     1  UNL1       -0.0689
     11 C         -14.1833  -18.1569   24.7689 C.3     1  UNL1        0.1432
     12 N         -14.3591  -18.6483   26.1751 N.3     1  UNL1       -0.3102
     13 H         -14.3758  -19.6681   26.1793 H       1  UNL1        0.1198
     14 H         -15.2374  -18.2923   26.5524 H       1  UNL1        0.1198
@<TRIPOS>BOND
     1     7     8    1
     2     8     1    1
     3     1     2   ar
     4     2     3   ar
     5     3     4   ar
     6     4     5   ar
     7     5     6   ar
     8     6     9    1
     9     9    10    3
    10    10    11    1
    11    11    12    1
    12     6     1   ar
    13    12    13    1
    14    12    14    1
@<TRIPOS>MOLECULE
*****
 14 14 0 0 0
SMALL
GASTEIGER

@<TRIPOS>ATOM
      1 C         -10.9673  -17.8553   23.4885 C.ar    1  UNL1       -0.0115
      2 C         -12.3174  -18.2974   23.0071 C.ar    1  UNL1        0.0170
      3 C         -12.9174  -17.6750   21.7813 C.ar    1  UNL1        0.0986
      4 N         -12.1673  -16.6105   21.0369 N.ar    1  UNL1       -0.2417
      5 C         -10.8172  -16.1684   21.5183 C.ar    1  UNL1        0.1067
      6 C         -10.2172  -16.7908   22.7441 C.ar    1  UNL1        0.0569
      7 C         -10.0390  -19.9412   24.7283 C.3     1  UNL1        0.0050
      8 C         -10.3673  -18.4777   24.7143 C.3     1  UNL1        0.0271
      9 C          -8.8670  -16.3487   23.2254 C.1     1  UNL1       -0.0618
     10 C          -7.5169  -15.9066   23.7067 C.1     1  UNL1       -0.0689
     11 C          -6.1667  -15.4645   24.1881 C.3     1  UNL1        0.1432
     12 N          -5.2218  -14.7797   23.2458 N.3     1  UNL1       -0.3102
     13 H          -4.9373  -15.4324   22.5154 H       1  UNL1        0.1198
     14 H          -4.3988  -14.4641   23.7591 H       1  UNL1        0.1198
@<TRIPOS>BOND
     1     7     8    1
     2     8     1    1
     3     1     2   ar
     4     2     3   ar
     5     3     4   ar
     6     4     5   ar
     7     5     6   ar
     8     6     9    1
     9     9    10    3
    10    10    11    1
    11    11    12    1
    12     6     1   ar
    13    12    13    1
    14    12    14    1
@<TRIPOS>MOLECULE
*****
 14 14 0 0 0
SMALL
GASTEIGER

@<TRIPOS>ATOM
      1 C          -3.2768  -18.6734   21.9077 C.ar    1  UNL1       -0.0115
      2 C          -2.3269  -19.3079   20.9356 C.ar    1  UNL1        0.0170
      3 C          -1.2308  -18.4920   20.3167 C.ar    1  UNL1        0.0986
      4 N          -1.0846  -17.0416   20.6700 N.ar    1  UNL1       -0.2417
      5 C          -2.0345  -16.4071   21.6421 C.ar    1  UNL1        0.1067
      6 C          -3.1306  -17.2229   22.2609 C.ar    1  UNL1        0.0569
      7 C          -5.5643  -19.8887   21.7075 C.3     1  UNL1        0.0050
      8 C          -4.3728  -19.4892   22.5265 C.3     1  UNL1        0.0271
      9 C          -4.0805  -16.5883   23.2331 C.1     1  UNL1       -0.0618
     10 C          -5.0304  -15.9537   24.2052 C.1     1  UNL1       -0.0689
     11 C          -5.9803  -15.3191   25.1773 C.3     1  UNL1        0.1432
     12 N          -7.0849  -14.4354   24.6784 N.3     1  UNL1       -0.3102
     13 H          -6.6854  -13.5965   24.2577 H       1  UNL1        0.1198
     14 H          -7.6872  -14.1711   25.4580 H       1  UNL1        0.1198
@<TRIPOS>BOND
     1     7     8    1
     2     8     1    1
     3     1     2   ar
     4     2     3   ar
     5     3     4   ar
     6     4     5   ar
     7     5     6   ar
     8     6     9    1
     9     9    10    3
    10    10    11    1
    11    11    12    1
    12     6     1   ar
    13    12    13    1
    14    12    14    1
@<TRIPOS>MOLECULE
*****
 14 14 0 0 0
SMALL
GASTEIGER

@<TRIPOS>ATOM
      1 C         -11.7273  -17.9408   21.6030 C.ar    1  UNL1       -0.0115
      2 C         -13.0462  -17.6159   22.2394 C.ar    1  UNL1        0.0170
      3 C         -13.2944  -17.9728   23.6750 C.ar    1  UNL1        0.0986
      4 N         -12.2238  -18.6546   24.4743 N.ar    1  UNL1       -0.2417
      5 C         -10.9049  -18.9795   23.8379 C.ar    1  UNL1        0.1067
      6 C         -10.6567  -18.6226   22.4023 C.ar    1  UNL1        0.0569
      7 C         -11.5265  -16.1492   19.7322 C.3     1  UNL1        0.0050
      8 C         -11.4791  -17.5839   20.1674 C.3     1  UNL1        0.0271
      9 C          -9.3378  -18.9475   21.7659 C.1     1  UNL1       -0.0618
     10 C          -8.0189  -19.2724   21.1296 C.1     1  UNL1       -0.0689
     11 C          -6.6999  -19.5974   20.4933 C.3     1  UNL1        0.1432
     12 N          -5.9421  -18.5350   19.7536 N.3     1  UNL1       -0.3102
     13 H          -6.4676  -18.2571   18.9248 H       1  UNL1        0.1198
     14 H          -5.0320  -18.8999   19.4726 H       1  UNL1        0.1198
@<TRIPOS>BOND
     1     7     8    1
     2     8     1    1
     3     1     2   ar
     4     2     3   ar
     5     3     4   ar
     6     4     5   ar
     7     5     6   ar
     8     6     9    1
     9     9    10    3
    10    10    11    1
    11    11    12    1
    12     6     1   ar
    13    12    13    1
    14    12    14    1
@<TRIPOS>MOLECULE
*****
 14 14 0 0 0
SMALL
GASTEIGER

@<TRIPOS>ATOM
      1 C         -11.0763  -17.5944   21.9453 C.ar    1  UNL1       -0.0115
      2 C         -11.4795  -18.2616   20.6638 C.ar    1  UNL1        0.0170
      3 C         -10.4371  -18.8792   19.7795 C.ar    1  UNL1        0.0986
      4 N          -8.9915  -18.8296   20.1766 N.ar    1  UNL1       -0.2417
      5 C          -8.5883  -18.1623   21.4580 C.ar    1  UNL1        0.1067
      6 C          -9.6307  -17.5448   22.3424 C.ar    1  UNL1        0.0569
      7 C         -13.2028  -17.8294   23.4192 C.3     1  UNL1        0.0050
      8 C         -12.1186  -16.9769   22.8296 C.3     1  UNL1        0.0271
      9 C          -9.2274  -16.8775   23.6239 C.1     1  UNL1       -0.0618
     10 C          -8.8241  -16.2103   24.9054 C.1     1  UNL1       -0.0689
     11 C          -8.4208  -15.5431   26.1869 C.3     1  UNL1        0.1432
     12 N          -7.0222  -15.0283   26.3566 N.3     1  UNL1       -0.3102
     13 H          -6.3694  -15.8120   26.3594 H       1  UNL1        0.1198
     14 H          -6.9507  -14.5230   27.2397 H       1  UNL1        0.1198
@<TRIPOS>BOND
     1     7     8    1
     2     8     1    1
     3     1     2   ar
     4     2     3   ar
     5     3     4   ar
     6     4     5   ar
     7     5     6   ar
     8     6     9    1
     9     9    10    3
    10    10    11    1
    11    11    12    1
    12     6     1   ar
    13    12    13    1
    14    12    14    1
@<TRIPOS>MOLECULE
*****
 14 14 0 0 0
SMALL
GASTEIGER

@<TRIPOS>ATOM
      1 C         -10.9282  -18.7715   22.7068 C.ar    1  UNL1       -0.0115
      2 C         -12.2580  -18.2632   23.1793 C.ar    1  UNL1        0.0170
      3 C         -12.7042  -16.8783   22.8146 C.ar    1  UNL1        0.0986
      4 N         -11.8207  -16.0017   21.9775 N.ar    1  UNL1       -0.2417
      5 C         -10.4909  -16.5100   21.5050 C.ar    1  UNL1        0.1067
      6 C         -10.0446  -17.8948   21.8697 C.ar    1  UNL1        0.0569
      7 C          -9.8359  -20.4104   24.4011 C.3     1  UNL1        0.0050
      8 C         -10.4820  -20.1563   23.0715 C.3     1  UNL1        0.0271
      9 C          -8.7148  -18.4031   21.3972 C.1     1  UNL1       -0.0618
     10 C          -7.3849  -18.9113   20.9247 C.1     1  UNL1       -0.0689
     11 C          -6.0551  -19.4196   20.4522 C.3     1  UNL1        0.1432
     12 N          -5.1731  -18.5442   19.6121 N.3     1  UNL1       -0.3102
     13 H          -5.6208  -18.3748   18.7114 H       1  UNL1        0.1198
     14 H          -4.2763  -19.0072   19.4642 H       1  UNL1        0.1198
@<TRIPOS>BOND
     1     7     8    1
     2     8     1    1
     3     1     2   ar
     4     2     3   ar
     5     3     4   ar
     6     4     5   ar
     7     5     6   ar
     8     6     9    1
     9     9    10    3
    10    10    11    1
    11    11    12    1
    12     6     1   ar
    13    12    13    1
    14    12    14    1
@<TRIPOS>MOLECULE
*****
 14 14 0 0 0
SMALL
GASTEIGER

@<TRIPOS>ATOM
      1 C          -9.7653  -18.8373   22.3253 C.ar    1  UNL1       -0.0115
      2 C         -10.2752  -19.4292   21.0449 C.ar    1  UNL1        0.0170
      3 C         -10.7825  -18.5331   19.9541 C.ar    1  UNL1        0.0986
      4 N         -10.7800  -17.0452   20.1439 N.ar    1  UNL1       -0.2417
      5 C         -10.2700  -16.4534   21.4243 C.ar    1  UNL1        0.1067
      6 C          -9.7627  -17.3494   22.5151 C.ar    1  UNL1        0.0569
      7 C         -10.2064  -20.2736   24.4448 C.3     1  UNL1        0.0050
      8 C          -9.2579  -19.7334   23.4161 C.3     1  UNL1        0.0271
      9 C          -9.2528  -16.7575   23.7956 C.1     1  UNL1       -0.0618
     10 C          -8.7428  -16.1656   25.0760 C.1     1  UNL1       -0.0689
     11 C          -8.2329  -15.5737   26.3566 C.3     1  UNL1        0.1432
     12 N          -6.8530  -14.9885   26.4151 N.3     1  UNL1       -0.3102
     13 H          -6.1639  -15.7289   26.2830 H       1  UNL1        0.1198
     14 H          -6.7088  -14.5480   27.3237 H       1  UNL1        0.1198
@<TRIPOS>BOND
     1     7     8    1
     2     8     1    1
     3     1     2   ar
     4     2     3   ar
     5     3     4   ar
     6     4     5   ar
     7     5     6   ar
     8     6     9    1
     9     9    10    3
    10    10    11    1
    11    11    12    1
    12     6     1   ar
    13    12    13    1
    14    12    14    1
@<TRIPOS>MOLECULE
*****
 14 14 0 0 0
SMALL
GASTEIGER

@<TRIPOS>ATOM
      1 C         -12.9984   -3.8068   19.5750 C.ar    1  UNL1       -0.0115
      2 C         -13.7705   -2.5209   19.5901 C.ar    1  UNL1        0.0170
      3 C         -13.1903   -1.2903   18.9584 C.ar    1  UNL1        0.0986
      4 N         -11.8381   -1.3456   18.3116 N.ar    1  UNL1       -0.2417
      5 C         -11.0660   -2.6315   18.2966 C.ar    1  UNL1        0.1067
      6 C         -11.6462   -3.8621   18.9282 C.ar    1  UNL1        0.0569
      7 C         -14.6118   -5.8407   19.4738 C.3     1  UNL1        0.0050
      8 C         -13.5786   -5.0374   20.2066 C.3     1  UNL1        0.0271
      9 C         -10.8740   -5.1481   18.9131 C.1     1  UNL1       -0.0618
     10 C         -10.1019   -6.4340   18.8981 C.1     1  UNL1       -0.0689
     11 C          -9.3297   -7.7199   18.8829 C.3     1  UNL1        0.1432
     12 N          -9.7466   -8.8344   17.9696 N.3     1  UNL1       -0.3102
     13 H         -10.6593   -9.1867   18.2578 H       1  UNL1        0.1198
     14 H          -9.0607   -9.5878   18.0175 H       1  UNL1        0.1198
@<TRIPOS>BOND
     1     7     8    1
     2     8     1    1
     3     1     2   ar
     4     2     3   ar
     5     3     4   ar
     6     4     5   ar
     7     5     6   ar
     8     6     9    1
     9     9    10    3
    10    10    11    1
    11    11    12    1
    12     6     1   ar
    13    12    13    1
    14    12    14    1
@<TRIPOS>MOLECULE
*****
 14 14 0 0 0
SMALL
GASTEIGER

@<TRIPOS>ATOM
      1 C         -10.4719  -17.4272   22.8885 C.ar    1  UNL1       -0.0115
      2 C         -11.9026  -16.9975   22.7532 C.ar    1  UNL1        0.0170
      3 C         -12.6009  -17.1210   21.4314 C.ar    1  UNL1        0.0986
      4 N         -11.8686  -17.6742   20.2450 N.ar    1  UNL1       -0.2417
      5 C         -10.4379  -18.1039   20.3804 C.ar    1  UNL1        0.1067
      6 C          -9.7395  -17.9804   21.7021 C.ar    1  UNL1        0.0569
      7 C          -9.0786  -16.0254   24.5749 C.3     1  UNL1        0.0050
      8 C          -9.7735  -17.3037   24.2103 C.3     1  UNL1        0.0271
      9 C          -8.3087  -18.4102   21.8374 C.1     1  UNL1       -0.0618
     10 C          -6.8780  -18.8399   21.9727 C.1     1  UNL1       -0.0689
     11 C          -5.4472  -19.2697   22.1080 C.3     1  UNL1        0.1432
     12 N          -4.3713  -18.5415   21.3582 N.3     1  UNL1       -0.3102
     13 H          -4.4986  -18.6848   20.3564 H       1  UNL1        0.1198
     14 H          -3.4587  -18.8998   21.6397 H       1  UNL1        0.1198
@<TRIPOS>BOND
     1     7     8    1
     2     8     1    1
     3     1     2   ar
     4     2     3   ar
     5     3     4   ar
     6     4     5   ar
     7     5     6   ar
     8     6     9    1
     9     9    10    3
    10    10    11    1
    11    11    12    1
    12     6     1   ar
    13    12    13    1
    14    12    14    1
