@<TRIPOS>MOLECULE
*****
 17 19 0 0 0
SMALL
GASTEIGER

@<TRIPOS>ATOM
      1 C          -9.4354  -17.2122   24.3339 C.2     1  UNL1        0.0069
      2 C          -9.8438  -18.3191   25.2602 C.2     1  UNL1        0.0947
      3 N         -11.1418  -18.8836   24.7638 N.2     1  UNL1       -0.2481
      4 C         -11.5356  -18.1257   23.5307 C.2     1  UNL1        0.0631
      5 C         -12.7182  -18.2427   22.6155 C.3     1  UNL1        0.0717
      6 C         -12.8462  -17.3267   21.4347 C.2     1  UNL1       -0.0198
      7 C         -11.7916  -16.2936   21.1690 C.2     1  UNL1       -0.0042
      8 C         -10.6089  -16.1766   22.0842 C.2     1  UNL1        0.0006
      9 C         -10.4809  -17.0927   23.2651 C.2     1  UNL1        0.0119
     10 O          -4.8331  -14.8639   23.2450 O.2     1  UNL1       -0.2747
     11 C          -6.0831  -15.2929   23.9547 C.2     1  UNL1        0.2289
     12 C          -7.1283  -16.2234   23.4147 C.3     1  UNL1        0.0990
     13 C          -8.1985  -16.3723   24.4552 C.3     1  UNL1        0.1097
     14 C          -7.8146  -15.5338   25.6382 C.2     1  UNL1        0.2323
     15 O          -8.6002  -15.3879   26.9076 O.2     1  UNL1       -0.2743
     16 N          -6.5072  -14.8666   25.3289 N.am    1  UNL1       -0.2550
     17 H          -6.0141  -14.2562   25.9235 H       1  UNL1        0.1575
@<TRIPOS>BOND
     1    10    11    2
     2    11    12    1
     3    12    13    1
     4    13     1    1
     5     1     2    2
     6     2     3    1
     7     3     4    2
     8     4     5    1
     9     5     6    1
    10     6     7    2
    11     7     8    1
    12     8     9    2
    13    13    14    1
    14    14    15    2
    15    14    16   am
    16    16    11   am
    17     9     1    1
    18     9     4    1
    19    16    17    1
@<TRIPOS>MOLECULE
*****
 17 19 0 0 0
SMALL
GASTEIGER

@<TRIPOS>ATOM
      1 C          -9.0099  -16.9428   23.7569 C.2     1  UNL1        0.0069
      2 C          -8.3164  -16.7204   22.4456 C.2     1  UNL1        0.0947
      3 N          -7.0162  -16.0250   22.7211 N.2     1  UNL1       -0.2481
      4 C          -6.9061  -15.8177   24.2026 C.2     1  UNL1        0.0631
      5 C          -5.8431  -15.1856   25.0514 C.3     1  UNL1        0.0717
      6 C          -6.0123  -15.1209   26.5404 C.2     1  UNL1       -0.0198
      7 C          -7.2445  -15.6882   27.1806 C.2     1  UNL1       -0.0042
      8 C          -8.3075  -16.3202   26.3318 C.2     1  UNL1        0.0006
      9 C          -8.1383  -16.3849   24.8428 C.2     1  UNL1        0.0119
     10 O         -14.1656  -18.0397   23.4460 O.2     1  UNL1       -0.2747
     11 C         -12.7111  -18.1108   23.8058 C.2     1  UNL1        0.2289
     12 C         -11.6432  -17.1598   23.3527 C.3     1  UNL1        0.0990
     13 C         -10.3413  -17.6067   23.9487 C.3     1  UNL1        0.1097
     14 C         -10.6045  -18.8338   24.7700 C.2     1  UNL1        0.2323
     15 O          -9.5824  -19.6127   25.5439 O.2     1  UNL1       -0.2743
     16 N         -12.0691  -19.1455   24.6818 N.am    1  UNL1       -0.2550
     17 H         -12.5283  -19.8971   25.1215 H       1  UNL1        0.1575
@<TRIPOS>BOND
     1    10    11    2
     2    11    12    1
     3    12    13    1
     4    13     1    1
     5     1     2    2
     6     2     3    1
     7     3     4    2
     8     4     5    1
     9     5     6    1
    10     6     7    2
    11     7     8    1
    12     8     9    2
    13    13    14    1
    14    14    15    2
    15    14    16   am
    16    16    11   am
    17     9     1    1
    18     9     4    1
    19    16    17    1
@<TRIPOS>MOLECULE
*****
 17 19 0 0 0
SMALL
GASTEIGER

@<TRIPOS>ATOM
      1 C          -8.5904  -16.5110   23.3827 C.2     1  UNL1        0.0069
      2 C          -7.3938  -16.6901   22.4961 C.2     1  UNL1        0.0947
      3 N          -6.1699  -16.3569   23.2966 N.2     1  UNL1       -0.2481
      4 C          -6.6100  -15.9719   24.6779 C.2     1  UNL1        0.0631
      5 C          -5.8418  -15.5469   25.8942 C.3     1  UNL1        0.0717
      6 C          -6.5697  -15.2172   27.1636 C.2     1  UNL1       -0.0198
      7 C          -8.0657  -15.3124   27.2168 C.2     1  UNL1       -0.0042
      8 C          -8.8339  -15.7374   26.0006 C.2     1  UNL1        0.0006
      9 C          -8.1060  -16.0672   24.7311 C.2     1  UNL1        0.0119
     10 O         -13.6143  -18.1360   23.4271 O.2     1  UNL1       -0.2747
     11 C         -12.3296  -17.4832   23.0103 C.2     1  UNL1        0.2289
     12 C         -11.0367  -17.5163   23.7701 C.3     1  UNL1        0.0990
     13 C         -10.0205  -16.7363   22.9898 C.3     1  UNL1        0.1097
     14 C         -10.6853  -16.2212   21.7479 C.2     1  UNL1        0.2323
     15 O         -10.0368  -15.3903   20.6806 O.2     1  UNL1       -0.2743
     16 N         -12.1124  -16.6828   21.7604 N.am    1  UNL1       -0.2550
     17 H         -12.7879  -16.4936   21.0696 H       1  UNL1        0.1575
@<TRIPOS>BOND
     1    10    11    2
     2    11    12    1
     3    12    13    1
     4    13     1    1
     5     1     2    2
     6     2     3    1
     7     3     4    2
     8     4     5    1
     9     5     6    1
    10     6     7    2
    11     7     8    1
    12     8     9    2
    13    13    14    1
    14    14    15    2
    15    14    16   am
    16    16    11   am
    17     9     1    1
    18     9     4    1
    19    16    17    1
@<TRIPOS>MOLECULE
*****
 17 19 0 0 0
SMALL
GASTEIGER

@<TRIPOS>ATOM
      1 C          -6.3591  -19.6536   21.5968 C.2     1  UNL1        0.0069
      2 C          -6.2427  -20.6567   20.4877 C.2     1  UNL1        0.0947
      3 N          -4.7934  -20.7747   20.1197 N.2     1  UNL1       -0.2481
      4 C          -4.0140  -19.8444   21.0013 C.2     1  UNL1        0.0631
      5 C          -2.5482  -19.5388   21.0908 C.3     1  UNL1        0.0717
      6 C          -2.0502  -18.5403   22.0932 C.2     1  UNL1       -0.0198
      7 C          -3.0178  -17.8474   23.0061 C.2     1  UNL1       -0.0042
      8 C          -4.4836  -18.1530   22.9167 C.2     1  UNL1        0.0006
      9 C          -4.9817  -19.1516   21.9143 C.2     1  UNL1        0.0119
     10 O         -10.8348  -19.7482   24.3970 O.2     1  UNL1       -0.2747
     11 C          -9.6870  -19.2707   23.5574 C.2     1  UNL1        0.2289
     12 C          -8.5414  -20.1085   23.0718 C.3     1  UNL1        0.0990
     13 C          -7.6298  -19.2272   22.2703 C.3     1  UNL1        0.1097
     14 C          -8.2120  -17.8449   22.2606 C.2     1  UNL1        0.2323
     15 O          -7.6257  -16.6461   21.5757 O.2     1  UNL1       -0.2743
     16 N          -9.4835  -17.8717   23.0560 N.am    1  UNL1       -0.2550
     17 H         -10.0796  -17.1056   23.2202 H       1  UNL1        0.1575
@<TRIPOS>BOND
     1    10    11    2
     2    11    12    1
     3    12    13    1
     4    13     1    1
     5     1     2    2
     6     2     3    1
     7     3     4    2
     8     4     5    1
     9     5     6    1
    10     6     7    2
    11     7     8    1
    12     8     9    2
    13    13    14    1
    14    14    15    2
    15    14    16   am
    16    16    11   am
    17     9     1    1
    18     9     4    1
    19    16    17    1
@<TRIPOS>MOLECULE
*****
 17 19 0 0 0
SMALL
GASTEIGER

@<TRIPOS>ATOM
      1 C          -9.3956  -19.4660   22.6180 C.2     1  UNL1        0.0069
      2 C          -9.2000  -20.3572   23.8086 C.2     1  UNL1        0.0947
      3 N         -10.3904  -20.1980   24.7072 N.2     1  UNL1       -0.2481
      4 C         -11.3217  -19.2085   24.0720 C.2     1  UNL1        0.0631
      5 C         -12.6501  -18.6609   24.5026 C.3     1  UNL1        0.0717
      6 C         -13.3637  -17.6610   23.6419 C.2     1  UNL1       -0.0198
      7 C         -12.7489  -17.2086   22.3506 C.2     1  UNL1       -0.0042
      8 C         -11.4204  -17.7561   21.9201 C.2     1  UNL1        0.0006
      9 C         -10.7069  -18.7561   22.7808 C.2     1  UNL1        0.0119
     10 O          -4.9966  -18.6686   19.8083 O.2     1  UNL1       -0.2747
     11 C          -6.4246  -18.9454   20.1752 C.2     1  UNL1        0.2289
     12 C          -6.9802  -19.0121   21.5669 C.3     1  UNL1        0.0990
     13 C          -8.4465  -19.3119   21.4667 C.3     1  UNL1        0.1097
     14 C          -8.7970  -19.4304   20.0131 C.2     1  UNL1        0.2323
     15 O         -10.1583  -19.7240   19.4556 O.2     1  UNL1       -0.2743
     16 N          -7.5475  -19.2039   19.2148 N.am    1  UNL1       -0.2550
     17 H          -7.4767  -19.2218   18.2331 H       1  UNL1        0.1575
@<TRIPOS>BOND
     1    10    11    2
     2    11    12    1
     3    12    13    1
     4    13     1    1
     5     1     2    2
     6     2     3    1
     7     3     4    2
     8     4     5    1
     9     5     6    1
    10     6     7    2
    11     7     8    1
    12     8     9    2
    13    13    14    1
    14    14    15    2
    15    14    16   am
    16    16    11   am
    17     9     1    1
    18     9     4    1
    19    16    17    1
@<TRIPOS>MOLECULE
*****
 17 19 0 0 0
SMALL
GASTEIGER

@<TRIPOS>ATOM
      1 C          -8.4679  -17.0279   22.9153 C.2     1  UNL1        0.0069
      2 C          -7.6033  -17.8114   21.9726 C.2     1  UNL1        0.0947
      3 N          -8.4877  -18.4013   20.9144 N.2     1  UNL1       -0.2481
      4 C          -9.8988  -17.9824   21.2030 C.2     1  UNL1        0.0631
      5 C         -11.1932  -18.2643   20.4995 C.3     1  UNL1        0.0717
      6 C         -12.4755  -17.6972   21.0326 C.2     1  UNL1       -0.0198
      7 C         -12.4633  -16.8484   22.2693 C.2     1  UNL1       -0.0042
      8 C         -11.1688  -16.5665   22.9728 C.2     1  UNL1        0.0006
      9 C          -9.8866  -17.1336   22.4396 C.2     1  UNL1        0.0119
     10 O          -8.2101  -14.9870   27.7783 O.2     1  UNL1       -0.2747
     11 C          -7.8781  -15.3334   26.3571 C.2     1  UNL1        0.2289
     12 C          -8.7013  -16.1924   25.4436 C.3     1  UNL1        0.0990
     13 C          -7.9966  -16.2715   24.1218 C.3     1  UNL1        0.1097
     14 C          -6.7380  -15.4613   24.2184 C.2     1  UNL1        0.2323
     15 O          -5.7296  -15.2654   23.1254 O.2     1  UNL1       -0.2743
     16 N          -6.6646  -14.8815   25.5998 N.am    1  UNL1       -0.2550
     17 H          -5.9463  -14.3055   25.9484 H       1  UNL1        0.1575
@<TRIPOS>BOND
     1    10    11    2
     2    11    12    1
     3    12    13    1
     4    13     1    1
     5     1     2    2
     6     2     3    1
     7     3     4    2
     8     4     5    1
     9     5     6    1
    10     6     7    2
    11     7     8    1
    12     8     9    2
    13    13    14    1
    14    14    15    2
    15    14    16   am
    16    16    11   am
    17     9     1    1
    18     9     4    1
    19    16    17    1
@<TRIPOS>MOLECULE
*****
 17 19 0 0 0
SMALL
GASTEIGER

@<TRIPOS>ATOM
      1 C          -9.8854  -17.1532   22.2336 C.2     1  UNL1        0.0069
      2 C         -11.3768  -17.1704   22.0743 C.2     1  UNL1        0.0947
      3 N         -11.7146  -18.1361   20.9773 N.2     1  UNL1       -0.2481
      4 C         -10.4320  -18.7157   20.4587 C.2     1  UNL1        0.0631
      5 C         -10.1475  -19.7182   19.3798 C.3     1  UNL1        0.0717
      6 C          -8.7325  -20.1131   19.0772 C.2     1  UNL1       -0.0198
      7 C          -7.6019  -19.5057   19.8537 C.2     1  UNL1       -0.0042
      8 C          -7.8864  -18.5032   20.9326 C.2     1  UNL1        0.0006
      9 C          -9.3015  -18.1083   21.2351 C.2     1  UNL1        0.0119
     10 O          -8.0456  -15.1546   26.7615 O.2     1  UNL1       -0.2747
     11 C          -8.2677  -15.4075   25.2997 C.2     1  UNL1        0.2289
     12 C          -9.2136  -16.4129   24.7126 C.3     1  UNL1        0.0990
     13 C          -9.1133  -16.3262   23.2185 C.3     1  UNL1        0.1097
     14 C          -8.1056  -15.2673   22.8822 C.2     1  UNL1        0.2323
     15 O          -7.6930  -14.8494   21.5019 O.2     1  UNL1       -0.2743
     16 N          -7.5829  -14.6994   24.1684 N.am    1  UNL1       -0.2550
     17 H          -6.9088  -13.9871   24.2550 H       1  UNL1        0.1575
@<TRIPOS>BOND
     1    10    11    2
     2    11    12    1
     3    12    13    1
     4    13     1    1
     5     1     2    2
     6     2     3    1
     7     3     4    2
     8     4     5    1
     9     5     6    1
    10     6     7    2
    11     7     8    1
    12     8     9    2
    13    13    14    1
    14    14    15    2
    15    14    16   am
    16    16    11   am
    17     9     1    1
    18     9     4    1
    19    16    17    1
@<TRIPOS>MOLECULE
*****
 17 19 0 0 0
SMALL
GASTEIGER

@<TRIPOS>ATOM
      1 C          -8.7353  -19.3845   22.8368 C.2     1  UNL1        0.0069
      2 C          -9.2121  -20.4302   23.8007 C.2     1  UNL1        0.0947
      3 N         -10.6280  -20.1051   24.1742 N.2     1  UNL1       -0.2481
      4 C         -11.0262  -18.8584   23.4412 C.2     1  UNL1        0.0631
      5 C         -12.3028  -18.0712   23.4197 C.3     1  UNL1        0.0717
      6 C         -12.4097  -16.8387   22.5715 C.2     1  UNL1       -0.0198
      7 C         -11.2399  -16.3933   21.7449 C.2     1  UNL1       -0.0042
      8 C          -9.9633  -17.1805   21.7665 C.2     1  UNL1        0.0006
      9 C          -9.8564  -18.4130   22.6146 C.2     1  UNL1        0.0119
     10 O          -4.3978  -20.6711   20.1142 O.2     1  UNL1       -0.2747
     11 C          -5.3822  -19.9126   20.9544 C.2     1  UNL1        0.2289
     12 C          -6.7357  -20.3983   21.3812 C.3     1  UNL1        0.0990
     13 C          -7.3759  -19.3212   22.2058 C.3     1  UNL1        0.1097
     14 C          -6.4181  -18.1699   22.2887 C.2     1  UNL1        0.2323
     15 O          -6.6515  -16.8796   23.0171 O.2     1  UNL1       -0.2743
     16 N          -5.1859  -18.5353   21.5153 N.am    1  UNL1       -0.2550
     17 H          -4.3883  -17.9704   21.3966 H       1  UNL1        0.1575
@<TRIPOS>BOND
     1    10    11    2
     2    11    12    1
     3    12    13    1
     4    13     1    1
     5     1     2    2
     6     2     3    1
     7     3     4    2
     8     4     5    1
     9     5     6    1
    10     6     7    2
    11     7     8    1
    12     8     9    2
    13    13    14    1
    14    14    15    2
    15    14    16   am
    16    16    11   am
    17     9     1    1
    18     9     4    1
    19    16    17    1
@<TRIPOS>MOLECULE
*****
 17 19 0 0 0
SMALL
GASTEIGER

@<TRIPOS>ATOM
      1 C          -7.0790  -19.3484   20.7687 C.2     1  UNL1        0.0069
      2 C          -7.5058  -19.2199   19.3365 C.2     1  UNL1        0.0947
      3 N          -8.9992  -19.3501   19.2845 N.2     1  UNL1       -0.2481
      4 C          -9.4954  -19.5591   20.6845 C.2     1  UNL1        0.0631
      5 C         -10.8745  -19.7501   21.2425 C.3     1  UNL1        0.0717
      6 C         -11.0669  -19.9402   22.7179 C.2     1  UNL1       -0.0198
      7 C          -9.8801  -19.9392   23.6353 C.2     1  UNL1       -0.0042
      8 C          -8.5010  -19.7481   23.0773 C.2     1  UNL1        0.0006
      9 C          -8.3086  -19.5580   21.6019 C.2     1  UNL1        0.0119
     10 O          -1.9423  -20.3422   21.4814 O.2     1  UNL1       -0.2747
     11 C          -3.3089  -19.7363   21.6060 C.2     1  UNL1        0.2289
     12 C          -4.5299  -20.1497   20.8390 C.3     1  UNL1        0.0990
     13 C          -5.6699  -19.2795   21.2784 C.3     1  UNL1        0.1097
     14 C          -5.1535  -18.3283   22.3169 C.2     1  UNL1        0.2323
     15 O          -5.9555  -17.2790   23.0281 O.2     1  UNL1       -0.2743
     16 N          -3.6943  -18.6105   22.5194 N.am    1  UNL1       -0.2550
     17 H          -3.0948  -18.1397   23.1424 H       1  UNL1        0.1575
@<TRIPOS>BOND
     1    10    11    2
     2    11    12    1
     3    12    13    1
     4    13     1    1
     5     1     2    2
     6     2     3    1
     7     3     4    2
     8     4     5    1
     9     5     6    1
    10     6     7    2
    11     7     8    1
    12     8     9    2
    13    13    14    1
    14    14    15    2
    15    14    16   am
    16    16    11   am
    17     9     1    1
    18     9     4    1
    19    16    17    1
