@<TRIPOS>MOLECULE
*****
 38 42 0 0 0
SMALL
GASTEIGER

@<TRIPOS>ATOM
      1 C           4.8879   -3.1745   20.9294 C.ar    1  UNL1        0.0781
      2 N           5.6989   -4.1062   21.7803 N.ar    1  UNL1       -0.2480
      3 C           5.9669   -3.7682   23.2170 C.ar    1  UNL1        0.0811
      4 C           6.7779   -4.7000   24.0680 C.ar    1  UNL1        0.0214
      5 C           7.0460   -4.3620   25.5046 C.ar    1  UNL1        0.0312
      6 C           6.5030   -3.0922   26.0902 C.ar    1  UNL1        0.1402
      7 F           6.7711   -2.7542   27.5269 F       1  UNL1       -0.2042
      8 C           5.6921   -2.1605   25.2393 C.ar    1  UNL1        0.0312
      9 C           5.4240   -2.4985   23.8027 C.ar    1  UNL1        0.0214
     10 C           4.6130   -1.5667   22.9517 C.ar    1  UNL1        0.0218
     11 C           4.3450   -1.9047   21.5151 C.ar    1  UNL1        0.0343
     12 C           4.0701   -0.2970   23.5373 C.ar    1  UNL1        0.0814
     13 C           2.7007   -0.2788   24.1494 C.ar    1  UNL1        0.0191
     14 C           2.1578    0.9909   24.7351 C.ar    1  UNL1        0.0031
     15 C           2.9843    2.2425   24.7086 C.ar    1  UNL1        0.0207
     16 C           4.3536    2.2243   24.0966 C.ar    1  UNL1        0.0988
     17 N           4.8965    0.9545   23.5109 N.ar    1  UNL1       -0.2438
     18 C           3.5340   -0.9730   20.6640 C.ar    1  UNL1        0.0825
     19 C           2.0592   -1.1955   20.5038 C.ar    1  UNL1        0.0192
     20 C           1.2482   -0.2638   19.6528 C.ar    1  UNL1        0.0031
     21 C           1.9120    0.8904   18.9621 C.ar    1  UNL1        0.0207
     22 C           3.3867    1.1130   19.1224 C.ar    1  UNL1        0.0988
     23 N           4.1977    0.1813   19.9733 N.ar    1  UNL1       -0.2438
     24 C           3.2700   -4.0210   19.0812 C.3     1  UNL1        0.0278
     25 C           4.6198   -3.5124   19.4927 C.3     1  UNL1        0.1110
     26 N           5.7015   -3.3418   18.4677 N.pl3   1  UNL1       -0.3141
     27 H           6.0638   -4.1281   17.9988 H       1  UNL1        0.1485
     28 C           6.2312   -1.9733   18.1570 C.ar    1  UNL1        0.1429
     29 N           5.5159   -1.0983   17.1707 N.ar    1  UNL1       -0.2084
     30 C           6.0456    0.2702   16.8600 C.ar    1  UNL1        0.2012
     31 N           7.2906    0.7637   17.5356 N.ar    1  UNL1       -0.2087
     32 C           8.0059   -0.1112   18.5219 C.ar    1  UNL1        0.1396
     33 N           9.2508    0.3823   19.1975 N.pl3   1  UNL1       -0.3420
     34 C           7.4762   -1.4798   18.8326 C.ar    1  UNL1        0.1308
     35 H           9.5985    1.2805   18.9936 H       1  UNL1        0.1437
     36 H           9.7203   -0.1920   19.8449 H       1  UNL1        0.1437
     37 C           8.1914   -2.3548   19.8189 C.1     1  UNL1        0.1061
     38 N           8.9067   -3.2297   20.8052 N.1     1  UNL1       -0.1906
@<TRIPOS>BOND
     1    25    24    1
     2    25    26    1
     3    26    28    1
     4    28    29   ar
     5    29    30   ar
     6    30    31   ar
     7    31    32   ar
     8    32    33    1
     9    32    34   ar
    10    34    37    1
    11    37    38    3
    12    25     1    1
    13     1     2   ar
    14     2     3   ar
    15     3     4   ar
    16     4     5   ar
    17     5     6   ar
    18     6     7    1
    19     6     8   ar
    20     8     9   ar
    21     9    10   ar
    22    10    12    1
    23    12    13   ar
    24    13    14   ar
    25    14    15   ar
    26    15    16   ar
    27    16    17   ar
    28    10    11   ar
    29    11    18    1
    30    18    19   ar
    31    19    20   ar
    32    20    21   ar
    33    21    22   ar
    34    22    23   ar
    35    34    28   ar
    36    11     1   ar
    37    23    18   ar
    38     9     3   ar
    39    17    12   ar
    40    26    27    1
    41    33    35    1
    42    33    36    1
@<TRIPOS>MOLECULE
*****
 38 42 0 0 0
SMALL
GASTEIGER

@<TRIPOS>ATOM
      1 C           3.5884   -0.6860   24.8507 C.ar    1  UNL1        0.0781
      2 N           4.2664   -1.9353   24.3717 N.ar    1  UNL1       -0.2480
      3 C           4.1990   -2.3168   22.9225 C.ar    1  UNL1        0.0811
      4 C           4.8770   -3.5661   22.4435 C.ar    1  UNL1        0.0214
      5 C           4.8096   -3.9475   20.9944 C.ar    1  UNL1        0.0312
      6 C           4.0641   -3.0796   20.0244 C.ar    1  UNL1        0.1402
      7 F           3.9967   -3.4611   18.5752 F       1  UNL1       -0.2042
      8 C           3.3860   -1.8303   20.5034 C.ar    1  UNL1        0.0312
      9 C           3.4535   -1.4489   21.9525 C.ar    1  UNL1        0.0214
     10 C           2.7754   -0.1996   22.4316 C.ar    1  UNL1        0.0218
     11 C           2.8429    0.1819   23.8807 C.ar    1  UNL1        0.0343
     12 C           2.0299    0.6683   21.4615 C.ar    1  UNL1        0.0814
     13 C           0.5760    0.4152   21.1926 C.ar    1  UNL1        0.0191
     14 C          -0.1694    1.2831   20.2226 C.ar    1  UNL1        0.0031
     15 C           0.5390    2.4041   19.5213 C.ar    1  UNL1        0.0207
     16 C           1.9928    2.6571   19.7902 C.ar    1  UNL1        0.0988
     17 N           2.7383    1.7892   20.7603 N.ar    1  UNL1       -0.2438
     18 C           2.1648    1.4312   24.3597 C.ar    1  UNL1        0.0825
     19 C           0.7516    1.3731   24.8593 C.ar    1  UNL1        0.0192
     20 C           0.0736    2.6224   25.3383 C.ar    1  UNL1        0.0031
     21 C           0.8087    3.9297   25.3179 C.ar    1  UNL1        0.0207
     22 C           2.2219    3.9878   24.8184 C.ar    1  UNL1        0.0988
     23 N           2.8999    2.7385   24.3393 N.ar    1  UNL1       -0.2438
     24 C           4.5429    0.8228   26.7382 C.3     1  UNL1        0.0278
     25 C           3.6558   -0.3045   26.2999 C.3     1  UNL1        0.1110
     26 N           2.8361   -1.0504   27.3107 N.pl3   1  UNL1       -0.3141
     27 H           2.7043   -2.0216   27.2176 H       1  UNL1        0.1485
     28 C           2.2174   -0.3166   28.4633 C.ar    1  UNL1        0.1429
     29 N           0.8904    0.3623   28.2949 N.ar    1  UNL1       -0.2084
     30 C           0.2717    1.0961   29.4475 C.ar    1  UNL1        0.2012
     31 N           0.9798    1.1511   30.7687 N.ar    1  UNL1       -0.2087
     32 C           2.3067    0.4722   30.9372 C.ar    1  UNL1        0.1396
     33 N           3.0149    0.5272   32.2584 N.pl3   1  UNL1       -0.3420
     34 C           2.9255   -0.2616   29.7845 C.ar    1  UNL1        0.1308
     35 H           2.6088    1.0089   33.0149 H       1  UNL1        0.1437
     36 H           3.8858    0.0816   32.3690 H       1  UNL1        0.1437
     37 C           4.2524   -0.9405   29.9530 C.1     1  UNL1        0.1061
     38 N           5.5793   -1.6193   30.1216 N.1     1  UNL1       -0.1906
@<TRIPOS>BOND
     1    25    24    1
     2    25    26    1
     3    26    28    1
     4    28    29   ar
     5    29    30   ar
     6    30    31   ar
     7    31    32   ar
     8    32    33    1
     9    32    34   ar
    10    34    37    1
    11    37    38    3
    12    25     1    1
    13     1     2   ar
    14     2     3   ar
    15     3     4   ar
    16     4     5   ar
    17     5     6   ar
    18     6     7    1
    19     6     8   ar
    20     8     9   ar
    21     9    10   ar
    22    10    12    1
    23    12    13   ar
    24    13    14   ar
    25    14    15   ar
    26    15    16   ar
    27    16    17   ar
    28    10    11   ar
    29    11    18    1
    30    18    19   ar
    31    19    20   ar
    32    20    21   ar
    33    21    22   ar
    34    22    23   ar
    35    34    28   ar
    36    11     1   ar
    37    23    18   ar
    38     9     3   ar
    39    17    12   ar
    40    26    27    1
    41    33    35    1
    42    33    36    1
@<TRIPOS>MOLECULE
*****
 38 42 0 0 0
SMALL
GASTEIGER

@<TRIPOS>ATOM
      1 C          -1.4075    3.5063   23.0592 C.ar    1  UNL1        0.0781
      2 N          -0.5507    2.7287   22.1046 N.ar    1  UNL1       -0.2480
      3 C           0.4714    1.7641   22.6291 C.ar    1  UNL1        0.0811
      4 C           1.3282    0.9865   21.6746 C.ar    1  UNL1        0.0214
      5 C           2.3501    0.0220   22.1991 C.ar    1  UNL1        0.0312
      6 C           2.5153   -0.1650   23.6782 C.ar    1  UNL1        0.1402
      7 F           3.5373   -1.1296   24.2028 F       1  UNL1       -0.2042
      8 C           1.6585    0.6125   24.6328 C.ar    1  UNL1        0.0312
      9 C           0.6365    1.5771   24.1083 C.ar    1  UNL1        0.0214
     10 C          -0.2204    2.3547   25.0628 C.ar    1  UNL1        0.0218
     11 C          -1.2423    3.3193   24.5383 C.ar    1  UNL1        0.0343
     12 C          -0.0552    2.1677   26.5419 C.ar    1  UNL1        0.0814
     13 C          -0.8320    1.1004   27.2543 C.ar    1  UNL1        0.0191
     14 C          -0.6668    0.9134   28.7334 C.ar    1  UNL1        0.0031
     15 C           0.2751    1.7937   29.5002 C.ar    1  UNL1        0.0207
     16 C           1.0518    2.8610   28.7878 C.ar    1  UNL1        0.0988
     17 N           0.8867    3.0480   27.3087 N.ar    1  UNL1       -0.2438
     18 C          -2.0992    4.0969   25.4929 C.ar    1  UNL1        0.0825
     19 C          -3.4401    3.5635   25.9023 C.ar    1  UNL1        0.0192
     20 C          -4.2969    4.3411   26.8568 C.ar    1  UNL1        0.0031
     21 C          -3.8129    5.6520   27.4019 C.ar    1  UNL1        0.0207
     22 C          -2.4720    6.1853   26.9925 C.ar    1  UNL1        0.0988
     23 N          -1.6152    5.4078   26.0380 N.ar    1  UNL1       -0.2438
     24 C          -2.0627    5.9096   22.3211 C.3     1  UNL1        0.0278
     25 C          -2.4295    4.4709   22.5347 C.3     1  UNL1        0.1110
     26 N          -3.8182    3.9968   22.2237 N.pl3   1  UNL1       -0.3141
     27 H          -4.4093    3.6941   22.9505 H       1  UNL1        0.1485
     28 C          -4.3062    3.9839   20.8054 C.ar    1  UNL1        0.1429
     29 N          -3.3345    3.7883   19.6796 N.ar    1  UNL1       -0.2084
     30 C          -3.8226    3.7753   18.2613 C.ar    1  UNL1        0.2012
     31 N          -5.2824    3.9580   17.9688 N.ar    1  UNL1       -0.2087
     32 C          -6.2541    4.1536   19.0946 C.ar    1  UNL1        0.1396
     33 N          -7.7139    4.3363   18.8020 N.pl3   1  UNL1       -0.3420
     34 C          -5.7661    4.1666   20.5129 C.ar    1  UNL1        0.1308
     35 H          -8.0343    4.3278   17.8712 H       1  UNL1        0.1437
     36 H          -8.3517    4.4647   19.5409 H       1  UNL1        0.1437
     37 C          -6.7378    4.3621   21.6387 C.1     1  UNL1        0.1061
     38 N          -7.7096    4.5577   22.7645 N.1     1  UNL1       -0.1906
@<TRIPOS>BOND
     1    25    24    1
     2    25    26    1
     3    26    28    1
     4    28    29   ar
     5    29    30   ar
     6    30    31   ar
     7    31    32   ar
     8    32    33    1
     9    32    34   ar
    10    34    37    1
    11    37    38    3
    12    25     1    1
    13     1     2   ar
    14     2     3   ar
    15     3     4   ar
    16     4     5   ar
    17     5     6   ar
    18     6     7    1
    19     6     8   ar
    20     8     9   ar
    21     9    10   ar
    22    10    12    1
    23    12    13   ar
    24    13    14   ar
    25    14    15   ar
    26    15    16   ar
    27    16    17   ar
    28    10    11   ar
    29    11    18    1
    30    18    19   ar
    31    19    20   ar
    32    20    21   ar
    33    21    22   ar
    34    22    23   ar
    35    34    28   ar
    36    11     1   ar
    37    23    18   ar
    38     9     3   ar
    39    17    12   ar
    40    26    27    1
    41    33    35    1
    42    33    36    1
@<TRIPOS>MOLECULE
*****
 38 42 0 0 0
SMALL
GASTEIGER

@<TRIPOS>ATOM
      1 C         -14.4194   -2.9202   18.7960 C.ar    1  UNL1        0.0781
      2 N         -12.9275   -2.8415   18.9292 N.ar    1  UNL1       -0.2480
      3 C         -12.1069   -4.0972   18.9267 C.ar    1  UNL1        0.0811
      4 C         -10.6150   -4.0185   19.0599 C.ar    1  UNL1        0.0214
      5 C          -9.7945   -5.2742   19.0574 C.ar    1  UNL1        0.0312
      6 C         -10.4660   -6.6086   18.9216 C.ar    1  UNL1        0.1402
      7 F          -9.6455   -7.8643   18.9191 F       1  UNL1       -0.2042
      8 C         -11.9580   -6.6873   18.7884 C.ar    1  UNL1        0.0312
      9 C         -12.7784   -5.4316   18.7909 C.ar    1  UNL1        0.0214
     10 C         -14.2705   -5.5103   18.6577 C.ar    1  UNL1        0.0218
     11 C         -15.0910   -4.2546   18.6602 C.ar    1  UNL1        0.0343
     12 C         -14.9420   -6.8447   18.5219 C.ar    1  UNL1        0.0814
     13 C         -15.0016   -7.5217   17.1847 C.ar    1  UNL1        0.0191
     14 C         -15.6731   -8.8562   17.0489 C.ar    1  UNL1        0.0031
     15 C         -16.2850   -9.5135   18.2504 C.ar    1  UNL1        0.0207
     16 C         -16.2254   -8.8365   19.5876 C.ar    1  UNL1        0.0988
     17 N         -15.5539   -7.5021   19.7233 N.ar    1  UNL1       -0.2438
     18 C         -16.5830   -4.3333   18.5270 C.ar    1  UNL1        0.0825
     19 C         -17.4396   -4.4610   19.7517 C.ar    1  UNL1        0.0192
     20 C         -18.9316   -4.5397   19.6185 C.ar    1  UNL1        0.0031
     21 C         -19.5670   -4.4906   18.2607 C.ar    1  UNL1        0.0207
     22 C         -18.7103   -4.3629   17.0360 C.ar    1  UNL1        0.0988
     23 N         -17.2184   -4.2842   17.1691 N.ar    1  UNL1       -0.2438
     24 C         -15.5937   -0.9971   17.5026 C.3     1  UNL1        0.0278
     25 C         -15.2400   -1.6645   18.7985 C.3     1  UNL1        0.1110
     26 N         -15.7068   -1.0762   20.0969 N.pl3   1  UNL1       -0.3141
     27 H         -15.1413   -1.1445   20.8999 H       1  UNL1        0.1485
     28 C         -17.0353   -0.3838   20.1720 C.ar    1  UNL1        0.1429
     29 N         -18.2774   -1.1735   20.4614 N.ar    1  UNL1       -0.2084
     30 C         -19.6059   -0.4811   20.5364 C.ar    1  UNL1        0.2012
     31 N         -19.6924    1.0010   20.3221 N.ar    1  UNL1       -0.2087
     32 C         -18.4504    1.7907   20.0327 C.ar    1  UNL1        0.1396
     33 N         -18.5368    3.2728   19.8184 N.pl3   1  UNL1       -0.3420
     34 C         -17.1218    1.0983   19.9576 C.ar    1  UNL1        0.1308
     35 H         -19.4088    3.7272   19.8676 H       1  UNL1        0.1437
     36 H         -17.7216    3.7911   19.6284 H       1  UNL1        0.1437
     37 C         -15.8798    1.8880   19.6683 C.1     1  UNL1        0.1061
     38 N         -14.6378    2.6777   19.3789 N.1     1  UNL1       -0.1906
@<TRIPOS>BOND
     1    25    24    1
     2    25    26    1
     3    26    28    1
     4    28    29   ar
     5    29    30   ar
     6    30    31   ar
     7    31    32   ar
     8    32    33    1
     9    32    34   ar
    10    34    37    1
    11    37    38    3
    12    25     1    1
    13     1     2   ar
    14     2     3   ar
    15     3     4   ar
    16     4     5   ar
    17     5     6   ar
    18     6     7    1
    19     6     8   ar
    20     8     9   ar
    21     9    10   ar
    22    10    12    1
    23    12    13   ar
    24    13    14   ar
    25    14    15   ar
    26    15    16   ar
    27    16    17   ar
    28    10    11   ar
    29    11    18    1
    30    18    19   ar
    31    19    20   ar
    32    20    21   ar
    33    21    22   ar
    34    22    23   ar
    35    34    28   ar
    36    11     1   ar
    37    23    18   ar
    38     9     3   ar
    39    17    12   ar
    40    26    27    1
    41    33    35    1
    42    33    36    1
@<TRIPOS>MOLECULE
*****
 38 42 0 0 0
SMALL
GASTEIGER

@<TRIPOS>ATOM
      1 C           3.6460   -0.3977   24.1456 C.ar    1  UNL1        0.0781
      2 N           4.3824   -1.1077   25.2426 N.ar    1  UNL1       -0.2480
      3 C           5.2902   -2.2562   24.9154 C.ar    1  UNL1        0.0811
      4 C           6.0267   -2.9662   26.0124 C.ar    1  UNL1        0.0214
      5 C           6.9343   -4.1147   25.6851 C.ar    1  UNL1        0.0312
      6 C           7.1055   -4.5531   24.2609 C.ar    1  UNL1        0.1402
      7 F           8.0132   -5.7016   23.9337 F       1  UNL1       -0.2042
      8 C           6.3690   -3.8431   23.1639 C.ar    1  UNL1        0.0312
      9 C           5.4614   -2.6947   23.4911 C.ar    1  UNL1        0.0214
     10 C           4.7248   -1.9846   22.3941 C.ar    1  UNL1        0.0218
     11 C           3.8172   -0.8361   22.7214 C.ar    1  UNL1        0.0343
     12 C           4.8960   -2.4230   20.9699 C.ar    1  UNL1        0.0814
     13 C           4.0558   -3.5385   20.4224 C.ar    1  UNL1        0.0191
     14 C           4.2269   -3.9769   18.9981 C.ar    1  UNL1        0.0031
     15 C           5.2384   -3.2999   18.1214 C.ar    1  UNL1        0.0207
     16 C           6.0786   -2.1844   18.6689 C.ar    1  UNL1        0.0988
     17 N           5.9074   -1.7460   20.0932 N.ar    1  UNL1       -0.2438
     18 C           3.0806   -0.1260   21.6244 C.ar    1  UNL1        0.0825
     19 C           1.7790   -0.6735   21.1184 C.ar    1  UNL1        0.0192
     20 C           1.0425    0.0365   20.0214 C.ar    1  UNL1        0.0031
     21 C           1.6076    1.2940   19.4305 C.ar    1  UNL1        0.0207
     22 C           2.9092    1.8415   19.9364 C.ar    1  UNL1        0.0988
     23 N           3.6457    1.1315   21.0334 N.ar    1  UNL1       -0.2438
     24 C           3.2935    2.1407   24.5730 C.3     1  UNL1        0.0278
     25 C           2.7382    0.7508   24.4728 C.3     1  UNL1        0.1110
     26 N           1.2753    0.5095   24.6999 N.pl3   1  UNL1       -0.3141
     27 H           0.9714   -0.3429   25.0875 H       1  UNL1        0.1485
     28 C           0.2755    1.5669   24.3363 C.ar    1  UNL1        0.1429
     29 N           0.2178    2.0938   22.9330 N.ar    1  UNL1       -0.2084
     30 C          -0.7820    3.1512   22.5694 C.ar    1  UNL1        0.2012
     31 N          -1.7241    3.6817   23.6090 N.ar    1  UNL1       -0.2087
     32 C          -1.6665    3.1549   25.0122 C.ar    1  UNL1        0.1396
     33 N          -2.6087    3.6855   26.0519 N.pl3   1  UNL1       -0.3420
     34 C          -0.6667    2.0974   25.3759 C.ar    1  UNL1        0.1308
     35 H          -3.2649    4.3795   25.8132 H       1  UNL1        0.1437
     36 H          -2.5709    3.3397   26.9728 H       1  UNL1        0.1437
     37 C          -0.6090    1.5706   26.7791 C.1     1  UNL1        0.1061
     38 N          -0.5514    1.0438   28.1823 N.1     1  UNL1       -0.1906
@<TRIPOS>BOND
     1    25    24    1
     2    25    26    1
     3    26    28    1
     4    28    29   ar
     5    29    30   ar
     6    30    31   ar
     7    31    32   ar
     8    32    33    1
     9    32    34   ar
    10    34    37    1
    11    37    38    3
    12    25     1    1
    13     1     2   ar
    14     2     3   ar
    15     3     4   ar
    16     4     5   ar
    17     5     6   ar
    18     6     7    1
    19     6     8   ar
    20     8     9   ar
    21     9    10   ar
    22    10    12    1
    23    12    13   ar
    24    13    14   ar
    25    14    15   ar
    26    15    16   ar
    27    16    17   ar
    28    10    11   ar
    29    11    18    1
    30    18    19   ar
    31    19    20   ar
    32    20    21   ar
    33    21    22   ar
    34    22    23   ar
    35    34    28   ar
    36    11     1   ar
    37    23    18   ar
    38     9     3   ar
    39    17    12   ar
    40    26    27    1
    41    33    35    1
    42    33    36    1
@<TRIPOS>MOLECULE
*****
 38 42 0 0 0
SMALL
GASTEIGER

@<TRIPOS>ATOM
      1 C          -1.0441    2.6762   21.9436 C.ar    1  UNL1        0.0781
      2 N          -0.2118    1.7017   21.1641 N.ar    1  UNL1       -0.2480
      3 C           0.8681    0.9197   21.8515 C.ar    1  UNL1        0.0811
      4 C           1.7003   -0.0548   21.0720 C.ar    1  UNL1        0.0214
      5 C           2.7801   -0.8367   21.7594 C.ar    1  UNL1        0.0312
      6 C           3.0277   -0.6441   23.2262 C.ar    1  UNL1        0.1402
      7 F           4.1076   -1.4261   23.9136 F       1  UNL1       -0.2042
      8 C           2.1954    0.3304   24.0057 C.ar    1  UNL1        0.0312
      9 C           1.1156    1.1123   23.3183 C.ar    1  UNL1        0.0214
     10 C           0.2833    2.0869   24.0978 C.ar    1  UNL1        0.0218
     11 C          -0.7965    2.8688   23.4104 C.ar    1  UNL1        0.0343
     12 C           0.5308    2.2795   25.5646 C.ar    1  UNL1        0.0814
     13 C          -0.2151    1.4488   26.5666 C.ar    1  UNL1        0.0191
     14 C           0.0325    1.6414   28.0334 C.ar    1  UNL1        0.0031
     15 C           1.0260    2.6647   28.4983 C.ar    1  UNL1        0.0207
     16 C           1.7718    3.4952   27.4964 C.ar    1  UNL1        0.0988
     17 N           1.5243    3.3026   26.0296 N.ar    1  UNL1       -0.2438
     18 C          -1.6289    3.8434   24.1899 C.ar    1  UNL1        0.0825
     19 C          -2.8835    3.3820   24.8704 C.ar    1  UNL1        0.0192
     20 C          -3.7158    4.3565   25.6498 C.ar    1  UNL1        0.0031
     21 C          -3.2935    5.7924   25.7488 C.ar    1  UNL1        0.0207
     22 C          -2.0389    6.2537   25.0683 C.ar    1  UNL1        0.0988
     23 N          -1.2066    5.2793   24.2889 N.ar    1  UNL1       -0.2438
     24 C          -1.9375    4.9231   20.9932 C.3     1  UNL1        0.0278
     25 C          -2.1240    3.4582   21.2562 C.3     1  UNL1        0.1110
     26 N          -3.3903    2.7752   20.8319 N.pl3   1  UNL1       -0.3141
     27 H          -3.3511    1.8978   20.3872 H       1  UNL1        0.1485
     28 C          -4.7162    3.4292   21.0851 C.ar    1  UNL1        0.1429
     29 N          -5.1933    3.6374   22.4919 N.ar    1  UNL1       -0.2084
     30 C          -6.5193    4.2913   22.7452 C.ar    1  UNL1        0.2012
     31 N          -7.3681    4.7372   21.5916 N.ar    1  UNL1       -0.2087
     32 C          -6.8911    4.5290   20.1849 C.ar    1  UNL1        0.1396
     33 N          -7.7399    4.9749   19.0313 N.pl3   1  UNL1       -0.3420
     34 C          -5.5651    3.8750   19.9316 C.ar    1  UNL1        0.1308
     35 H          -8.6102    5.4041   19.1975 H       1  UNL1        0.1437
     36 H          -7.4268    4.8383   18.1080 H       1  UNL1        0.1437
     37 C          -5.0880    3.6669   18.5248 C.1     1  UNL1        0.1061
     38 N          -4.6109    3.4588   17.1181 N.1     1  UNL1       -0.1906
@<TRIPOS>BOND
     1    25    24    1
     2    25    26    1
     3    26    28    1
     4    28    29   ar
     5    29    30   ar
     6    30    31   ar
     7    31    32   ar
     8    32    33    1
     9    32    34   ar
    10    34    37    1
    11    37    38    3
    12    25     1    1
    13     1     2   ar
    14     2     3   ar
    15     3     4   ar
    16     4     5   ar
    17     5     6   ar
    18     6     7    1
    19     6     8   ar
    20     8     9   ar
    21     9    10   ar
    22    10    12    1
    23    12    13   ar
    24    13    14   ar
    25    14    15   ar
    26    15    16   ar
    27    16    17   ar
    28    10    11   ar
    29    11    18    1
    30    18    19   ar
    31    19    20   ar
    32    20    21   ar
    33    21    22   ar
    34    22    23   ar
    35    34    28   ar
    36    11     1   ar
    37    23    18   ar
    38     9     3   ar
    39    17    12   ar
    40    26    27    1
    41    33    35    1
    42    33    36    1
@<TRIPOS>MOLECULE
*****
 38 42 0 0 0
SMALL
GASTEIGER

@<TRIPOS>ATOM
      1 C           3.4490   -0.2711   25.1016 C.ar    1  UNL1        0.0781
      2 N           4.3124   -1.4973   25.0688 N.ar    1  UNL1       -0.2480
      3 C           4.6159   -2.1661   23.7609 C.ar    1  UNL1        0.0811
      4 C           5.4792   -3.3923   23.7281 C.ar    1  UNL1        0.0214
      5 C           5.7827   -4.0610   22.4202 C.ar    1  UNL1        0.0312
      6 C           5.2229   -3.5036   21.1451 C.ar    1  UNL1        0.1402
      7 F           5.5264   -4.1724   19.8371 F       1  UNL1       -0.2042
      8 C           4.3596   -2.2774   21.1779 C.ar    1  UNL1        0.0312
      9 C           4.0561   -1.6087   22.4858 C.ar    1  UNL1        0.0214
     10 C           3.1927   -0.3824   22.5186 C.ar    1  UNL1        0.0218
     11 C           2.8892    0.2863   23.8265 C.ar    1  UNL1        0.0343
     12 C           2.6329    0.1750   21.2435 C.ar    1  UNL1        0.0814
     13 C           1.2937   -0.2848   20.7482 C.ar    1  UNL1        0.0191
     14 C           0.7339    0.2727   19.4731 C.ar    1  UNL1        0.0031
     15 C           1.5133    1.2899   18.6934 C.ar    1  UNL1        0.0207
     16 C           2.8523    1.7497   19.1887 C.ar    1  UNL1        0.0988
     17 N           3.4122    1.1922   20.4638 N.ar    1  UNL1       -0.2438
     18 C           2.0259    1.5126   23.8594 C.ar    1  UNL1        0.0825
     19 C           0.5462    1.3826   24.0683 C.ar    1  UNL1        0.0192
     20 C          -0.3172    2.6088   24.1011 C.ar    1  UNL1        0.0031
     21 C           0.2992    3.9649   23.9251 C.ar    1  UNL1        0.0207
     22 C           1.7789    4.0948   23.7162 C.ar    1  UNL1        0.0988
     23 N           2.6422    2.8687   23.6834 N.ar    1  UNL1       -0.2438
     24 C           3.9442    1.5903   26.8452 C.3     1  UNL1        0.0278
     25 C           3.1455    0.3977   26.4096 C.3     1  UNL1        0.1110
     26 N           2.0433   -0.1261   27.2818 N.pl3   1  UNL1       -0.3141
     27 H           1.2947   -0.6254   26.8825 H       1  UNL1        0.1485
     28 C           2.0818    0.1108   28.7624 C.ar    1  UNL1        0.1429
     29 N           3.0258   -0.6751   29.6235 N.ar    1  UNL1       -0.2084
     30 C           3.0643   -0.4382   31.1041 C.ar    1  UNL1        0.2012
     31 N           2.1589    0.5847   31.7238 N.ar    1  UNL1       -0.2087
     32 C           1.2150    1.3706   30.8628 C.ar    1  UNL1        0.1396
     33 N           0.3095    2.3934   31.4825 N.pl3   1  UNL1       -0.3420
     34 C           1.1764    1.1337   29.3821 C.ar    1  UNL1        0.1308
     35 H           0.3348    2.5489   32.4543 H       1  UNL1        0.1437
     36 H          -0.3100    2.9093   30.9174 H       1  UNL1        0.1437
     37 C           0.2325    1.9196   28.5211 C.1     1  UNL1        0.1061
     38 N          -0.7114    2.7055   27.6602 N.1     1  UNL1       -0.1906
@<TRIPOS>BOND
     1    25    24    1
     2    25    26    1
     3    26    28    1
     4    28    29   ar
     5    29    30   ar
     6    30    31   ar
     7    31    32   ar
     8    32    33    1
     9    32    34   ar
    10    34    37    1
    11    37    38    3
    12    25     1    1
    13     1     2   ar
    14     2     3   ar
    15     3     4   ar
    16     4     5   ar
    17     5     6   ar
    18     6     7    1
    19     6     8   ar
    20     8     9   ar
    21     9    10   ar
    22    10    12    1
    23    12    13   ar
    24    13    14   ar
    25    14    15   ar
    26    15    16   ar
    27    16    17   ar
    28    10    11   ar
    29    11    18    1
    30    18    19   ar
    31    19    20   ar
    32    20    21   ar
    33    21    22   ar
    34    22    23   ar
    35    34    28   ar
    36    11     1   ar
    37    23    18   ar
    38     9     3   ar
    39    17    12   ar
    40    26    27    1
    41    33    35    1
    42    33    36    1
@<TRIPOS>MOLECULE
*****
 38 42 0 0 0
SMALL
GASTEIGER

@<TRIPOS>ATOM
      1 C           4.7384   -1.2217   24.7460 C.ar    1  UNL1        0.0781
      2 N           3.5238   -0.3568   24.9090 N.ar    1  UNL1       -0.2480
      3 C           2.6625   -0.0418   23.7219 C.ar    1  UNL1        0.0811
      4 C           1.4479    0.8230   23.8849 C.ar    1  UNL1        0.0214
      5 C           0.5867    1.1380   22.6979 C.ar    1  UNL1        0.0312
      6 C           0.9401    0.5880   21.3478 C.ar    1  UNL1        0.1402
      7 F           0.0788    0.9030   20.1607 F       1  UNL1       -0.2042
      8 C           2.1547   -0.2769   21.1848 C.ar    1  UNL1        0.0312
      9 C           3.0159   -0.5918   22.3719 C.ar    1  UNL1        0.0214
     10 C           4.2306   -1.4567   22.2089 C.ar    1  UNL1        0.0218
     11 C           5.0918   -1.7716   23.3959 C.ar    1  UNL1        0.0343
     12 C           4.5841   -2.0067   20.8588 C.ar    1  UNL1        0.0814
     13 C           4.1074   -3.3709   20.4565 C.ar    1  UNL1        0.0191
     14 C           4.4608   -3.9208   19.1064 C.ar    1  UNL1        0.0031
     15 C           5.2909   -3.1066   18.1588 C.ar    1  UNL1        0.0207
     16 C           5.7675   -1.7425   18.5611 C.ar    1  UNL1        0.0988
     17 N           5.4141   -1.1925   19.9112 N.ar    1  UNL1       -0.2438
     18 C           6.3065   -2.6366   23.2330 C.ar    1  UNL1        0.0825
     19 C           7.5816   -2.0474   22.7066 C.ar    1  UNL1        0.0192
     20 C           8.7962   -2.9122   22.5436 C.ar    1  UNL1        0.0031
     21 C           8.7359   -4.3662   22.9070 C.ar    1  UNL1        0.0207
     22 C           7.4608   -4.9554   23.4334 C.ar    1  UNL1        0.0988
     23 N           6.2461   -4.0906   23.5964 N.ar    1  UNL1       -0.2438
     24 C           6.5345   -0.4979   26.4781 C.3     1  UNL1        0.0278
     25 C           5.5997   -1.5366   25.9331 C.3     1  UNL1        0.1110
     26 N           5.5261   -2.8903   26.5750 N.pl3   1  UNL1       -0.3141
     27 H           5.2519   -3.6726   26.0441 H       1  UNL1        0.1485
     28 C           5.8703   -3.0519   28.0260 C.ar    1  UNL1        0.1429
     29 N           5.6734   -1.9074   28.9755 N.ar    1  UNL1       -0.2084
     30 C           6.0176   -2.0690   30.4265 C.ar    1  UNL1        0.2012
     31 N           6.5587   -3.3751   30.9280 N.ar    1  UNL1       -0.2087
     32 C           6.7556   -4.5195   29.9786 C.ar    1  UNL1        0.1396
     33 N           7.2968   -5.8255   30.4801 N.pl3   1  UNL1       -0.3420
     34 C           6.4114   -4.3579   28.5275 C.ar    1  UNL1        0.1308
     35 H           7.5227   -5.9315   31.4324 H       1  UNL1        0.1437
     36 H           7.4260   -6.5766   29.8569 H       1  UNL1        0.1437
     37 C           6.6083   -5.5023   27.5781 C.1     1  UNL1        0.1061
     38 N           6.8053   -6.6467   26.6286 N.1     1  UNL1       -0.1906
@<TRIPOS>BOND
     1    25    24    1
     2    25    26    1
     3    26    28    1
     4    28    29   ar
     5    29    30   ar
     6    30    31   ar
     7    31    32   ar
     8    32    33    1
     9    32    34   ar
    10    34    37    1
    11    37    38    3
    12    25     1    1
    13     1     2   ar
    14     2     3   ar
    15     3     4   ar
    16     4     5   ar
    17     5     6   ar
    18     6     7    1
    19     6     8   ar
    20     8     9   ar
    21     9    10   ar
    22    10    12    1
    23    12    13   ar
    24    13    14   ar
    25    14    15   ar
    26    15    16   ar
    27    16    17   ar
    28    10    11   ar
    29    11    18    1
    30    18    19   ar
    31    19    20   ar
    32    20    21   ar
    33    21    22   ar
    34    22    23   ar
    35    34    28   ar
    36    11     1   ar
    37    23    18   ar
    38     9     3   ar
    39    17    12   ar
    40    26    27    1
    41    33    35    1
    42    33    36    1
@<TRIPOS>MOLECULE
*****
 38 42 0 0 0
SMALL
GASTEIGER

@<TRIPOS>ATOM
      1 C           3.2729    0.1886   23.9589 C.ar    1  UNL1        0.0781
      2 N           2.1216    1.0839   23.6083 N.ar    1  UNL1       -0.2480
      3 C           1.6611    1.1909   22.1847 C.ar    1  UNL1        0.0811
      4 C           0.5099    2.0863   21.8342 C.ar    1  UNL1        0.0214
      5 C           0.0494    2.1932   20.4106 C.ar    1  UNL1        0.0312
      6 C           0.7402    1.4049   19.3377 C.ar    1  UNL1        0.1402
      7 F           0.2797    1.5119   17.9141 F       1  UNL1       -0.2042
      8 C           1.8915    0.5095   19.6882 C.ar    1  UNL1        0.0312
      9 C           2.3519    0.4026   21.1118 C.ar    1  UNL1        0.0214
     10 C           3.5032   -0.4928   21.4624 C.ar    1  UNL1        0.0218
     11 C           3.9637   -0.5998   22.8859 C.ar    1  UNL1        0.0343
     12 C           4.1940   -1.2812   20.3894 C.ar    1  UNL1        0.0814
     13 C           3.6985   -2.6501   20.0277 C.ar    1  UNL1        0.0191
     14 C           4.3894   -3.4384   18.9547 C.ar    1  UNL1        0.0031
     15 C           5.5756   -2.8579   18.2435 C.ar    1  UNL1        0.0207
     16 C           6.0710   -1.4891   18.6052 C.ar    1  UNL1        0.0988
     17 N           5.3802   -0.7008   19.6782 N.ar    1  UNL1       -0.2438
     18 C           5.1150   -1.4952   23.2366 C.ar    1  UNL1        0.0825
     19 C           4.8652   -2.9260   23.6114 C.ar    1  UNL1        0.0192
     20 C           6.0164   -3.8213   23.9620 C.ar    1  UNL1        0.0031
     21 C           7.4174   -3.2859   23.9378 C.ar    1  UNL1        0.0207
     22 C           7.6671   -1.8551   23.5629 C.ar    1  UNL1        0.0988
     23 N           6.5159   -0.9598   23.2123 N.ar    1  UNL1       -0.2438
     24 C           4.9015    0.8947   25.8560 C.3     1  UNL1        0.0278
     25 C           3.7334    0.0816   25.3825 C.3     1  UNL1        0.1110
     26 N           3.0257   -0.8386   26.3325 N.pl3   1  UNL1       -0.3141
     27 H           2.6517   -1.6892   26.0073 H       1  UNL1        0.1485
     28 C           2.8880   -0.4627   27.7781 C.ar    1  UNL1        0.1429
     29 N           3.8900   -0.9551   28.7799 N.ar    1  UNL1       -0.2084
     30 C           3.7522   -0.5792   30.2254 C.ar    1  UNL1        0.2012
     31 N           2.6125    0.2891   30.6693 N.ar    1  UNL1       -0.2087
     32 C           1.6105    0.7816   29.6675 C.ar    1  UNL1        0.1396
     33 N           0.4708    1.6499   30.1114 N.pl3   1  UNL1       -0.3420
     34 C           1.7482    0.4057   28.2219 C.ar    1  UNL1        0.1308
     35 H           0.3804    1.8966   31.0602 H       1  UNL1        0.1437
     36 H          -0.1869    1.9731   29.4539 H       1  UNL1        0.1437
     37 C           0.7463    0.8981   27.2202 C.1     1  UNL1        0.1061
     38 N          -0.2557    1.3906   26.2185 N.1     1  UNL1       -0.1906
@<TRIPOS>BOND
     1    25    24    1
     2    25    26    1
     3    26    28    1
     4    28    29   ar
     5    29    30   ar
     6    30    31   ar
     7    31    32   ar
     8    32    33    1
     9    32    34   ar
    10    34    37    1
    11    37    38    3
    12    25     1    1
    13     1     2   ar
    14     2     3   ar
    15     3     4   ar
    16     4     5   ar
    17     5     6   ar
    18     6     7    1
    19     6     8   ar
    20     8     9   ar
    21     9    10   ar
    22    10    12    1
    23    12    13   ar
    24    13    14   ar
    25    14    15   ar
    26    15    16   ar
    27    16    17   ar
    28    10    11   ar
    29    11    18    1
    30    18    19   ar
    31    19    20   ar
    32    20    21   ar
    33    21    22   ar
    34    22    23   ar
    35    34    28   ar
    36    11     1   ar
    37    23    18   ar
    38     9     3   ar
    39    17    12   ar
    40    26    27    1
    41    33    35    1
    42    33    36    1
