@<TRIPOS>MOLECULE
*****
 47 52 0 0 0
SMALL
GASTEIGER

@<TRIPOS>ATOM
      1 C           0.7329    1.7963   29.9393 C.ar    1  UNL1        0.0516
      2 C           0.9014    3.1851   29.3980 C.ar    1  UNL1        0.0148
      3 C           0.1175    3.6217   28.1960 C.ar    1  UNL1        0.0043
      4 C          -0.8348    2.6697   27.5354 C.ar    1  UNL1        0.0361
      5 C          -1.0033    1.2809   28.0767 C.ar    1  UNL1        0.0043
      6 C          -0.2194    0.8442   29.2787 C.ar    1  UNL1        0.0148
      7 N           3.4779    0.0080   32.1792 N.am    1  UNL1       -0.2681
      8 C           2.6940    0.4446   30.9772 C.2     1  UNL1        0.3082
      9 O           3.0873   -0.0339   29.6110 O.2     1  UNL1       -0.2522
     10 N           1.5169    1.3597   31.1414 N.am    1  UNL1       -0.2681
     11 H           3.2198    0.3220   33.0759 H       1  UNL1        0.1564
     12 H           1.2588    1.6737   32.0381 H       1  UNL1        0.1564
     13 C           7.0094   -2.7372   31.6869 C.ar    1  UNL1        0.0537
     14 C           7.0130   -1.3862   31.0351 C.ar    1  UNL1        0.0058
     15 C           5.8359   -0.4711   31.1993 C.ar    1  UNL1        0.0149
     16 C           4.6551   -0.9071   32.0151 C.ar    1  UNL1        0.0516
     17 C           4.6514   -2.2581   32.6668 C.ar    1  UNL1        0.0149
     18 C           5.8286   -3.1732   32.5027 C.ar    1  UNL1        0.0058
     19 C           8.1321   -6.8413   28.3482 C.3     1  UNL1        0.0610
     20 C           9.3274   -6.6933   29.2423 C.3     1  UNL1        0.0375
     21 C           9.3456   -5.6303   30.3004 C.3     1  UNL1        0.0951
     22 N           8.1684   -4.7153   30.4646 N.am    1  UNL1       -0.2760
     23 C           8.1866   -3.6523   31.5227 C.2     1  UNL1        0.2490
     24 O           9.3819   -3.5043   32.4167 O.2     1  UNL1       -0.2699
     25 C           6.9731   -4.8633   29.5705 C.3     1  UNL1        0.0951
     26 C           6.9550   -5.9263   28.5124 C.3     1  UNL1        0.0375
     27 C           8.4863   -9.3151   27.6378 C.3     1  UNL1        0.0896
     28 N           8.1140   -7.9043   27.2901 N.3     1  UNL1       -0.2715
     29 C           7.7235   -7.5565   25.8842 C.3     1  UNL1        0.0896
     30 C          -1.6188    3.1063   26.3333 C.ar    1  UNL1        0.1680
     31 N          -1.0478    2.9228   24.9584 N.ar    1  UNL1       -0.1944
     32 C          -1.8317    3.3594   23.7564 C.ar    1  UNL1        0.2240
     33 N          -3.1866    3.9796   23.9293 N.ar    1  UNL1       -0.1807
     34 C          -3.7575    4.1630   25.3042 C.ar    1  UNL1        0.2240
     35 N          -2.9736    3.7264   26.5062 N.ar    1  UNL1       -0.1944
     36 N          -1.2607    3.1760   22.3815 N.pl3   1  UNL1       -0.2729
     37 C          -2.0129    3.6765   21.1841 C.3     1  UNL1        0.1257
     38 C          -1.4419    3.4930   19.8092 C.3     1  UNL1        0.1637
     39 O          -0.1188    2.8091   19.6317 O.3     1  UNL1       -0.3501
     40 C           0.6334    2.3085   20.8291 C.3     1  UNL1        0.1637
     41 C           0.0624    2.4920   22.2040 C.3     1  UNL1        0.1257
     42 N          -5.1123    4.7831   25.4770 N.pl3   1  UNL1       -0.2729
     43 C          -6.1245    4.6934   24.3737 C.3     1  UNL1        0.1257
     44 C          -7.4794    5.3135   24.5465 C.3     1  UNL1        0.1637
     45 O          -7.8221    6.0233   25.8228 O.3     1  UNL1       -0.3501
     46 C          -6.8098    6.1129   26.9262 C.3     1  UNL1        0.1637
     47 C          -5.4550    5.4929   26.7533 C.3     1  UNL1        0.1257
@<TRIPOS>BOND
     1    27    28    1
     2    28    29    1
     3    28    19    1
     4    19    20    1
     5    20    21    1
     6    21    22    1
     7    22    23   am
     8    23    24    2
     9    23    13    1
    10    13    14   ar
    11    14    15   ar
    12    15    16   ar
    13    16     7    1
    14     7     8   am
    15     8     9    2
    16     8    10   am
    17    10     1    1
    18     1     2   ar
    19     2     3   ar
    20     3     4   ar
    21     4    30    1
    22    30    31   ar
    23    31    32   ar
    24    32    36    1
    25    36    37    1
    26    37    38    1
    27    38    39    1
    28    39    40    1
    29    40    41    1
    30    32    33   ar
    31    33    34   ar
    32    34    42    1
    33    42    43    1
    34    43    44    1
    35    44    45    1
    36    45    46    1
    37    46    47    1
    38    34    35   ar
    39     4     5   ar
    40     5     6   ar
    41    16    17   ar
    42    17    18   ar
    43    22    25    1
    44    25    26    1
    45    26    19    1
    46    18    13   ar
    47     6     1   ar
    48    35    30   ar
    49    41    36    1
    50    47    42    1
    51     7    11    1
    52    10    12    1
@<TRIPOS>MOLECULE
*****
 47 52 0 0 0
SMALL
GASTEIGER

@<TRIPOS>ATOM
      1 C           0.7304    1.8647   29.9739 C.ar    1  UNL1        0.0516
      2 C           0.8940    3.2513   29.4256 C.ar    1  UNL1        0.0148
      3 C           0.1108    3.6782   28.2197 C.ar    1  UNL1        0.0043
      4 C          -0.8360    2.7185   27.5620 C.ar    1  UNL1        0.0361
      5 C          -0.9996    1.3319   28.1104 C.ar    1  UNL1        0.0043
      6 C          -0.2165    0.9050   29.3163 C.ar    1  UNL1        0.0148
      7 N           3.4732    0.0935   32.2300 N.am    1  UNL1       -0.2681
      8 C           2.6900    0.5204   31.0240 C.2     1  UNL1        0.3082
      9 O           3.0832    0.0297   29.6621 O.2     1  UNL1       -0.2522
     10 N           1.5136    1.4378   31.1799 N.am    1  UNL1       -0.2681
     11 H           3.2151    0.4156   33.1238 H       1  UNL1        0.1564
     12 H           1.2556    1.7598   32.0738 H       1  UNL1        0.1564
     13 C           7.0024   -2.6590   31.7624 C.ar    1  UNL1        0.0537
     14 C           7.0318   -1.2907   31.1482 C.ar    1  UNL1        0.0058
     15 C           5.8554   -0.3733   31.3041 C.ar    1  UNL1        0.0149
     16 C           4.6496   -0.8240   32.0741 C.ar    1  UNL1        0.0516
     17 C           4.6202   -2.1921   32.6883 C.ar    1  UNL1        0.0149
     18 C           5.7967   -3.1097   32.5325 C.ar    1  UNL1        0.0058
     19 C           8.1166   -6.8019   28.4693 C.3     1  UNL1        0.0610
     20 C           9.3137   -6.6442   29.3591 C.3     1  UNL1        0.0375
     21 C           9.3345   -5.5690   30.4049 C.3     1  UNL1        0.0951
     22 N           8.1581   -4.6516   30.5608 N.am    1  UNL1       -0.2760
     23 C           8.1788   -3.5764   31.6065 C.2     1  UNL1        0.2490
     24 O           9.3760   -3.4187   32.4964 O.2     1  UNL1       -0.2699
     25 C           6.9609   -4.8093   29.6709 C.3     1  UNL1        0.0951
     26 C           6.9402   -5.8845   28.6251 C.3     1  UNL1        0.0375
     27 C           7.3341   -7.6684   26.1483 C.3     1  UNL1        0.0896
     28 N           8.0959   -7.8771   27.4235 N.3     1  UNL1       -0.2715
     29 C           8.8369   -9.1609   27.6530 C.3     1  UNL1        0.0896
     30 C          -1.6193    3.1454   26.3560 C.ar    1  UNL1        0.1680
     31 N          -2.9769    3.7610   26.5228 N.ar    1  UNL1       -0.1944
     32 C          -3.7601    4.1879   25.3169 C.ar    1  UNL1        0.2240
     33 N          -3.1857    3.9992   23.9441 N.ar    1  UNL1       -0.1807
     34 C          -1.8281    3.3835   23.7773 C.ar    1  UNL1        0.2240
     35 N          -1.0449    2.9567   24.9833 N.ar    1  UNL1       -0.1944
     36 N          -5.1178    4.8035   25.4837 N.pl3   1  UNL1       -0.2729
     37 C          -6.1230    4.7148   24.3740 C.3     1  UNL1        0.1257
     38 C          -7.4807    5.3304   24.5408 C.3     1  UNL1        0.1637
     39 O          -7.8331    6.0348   25.8173 O.3     1  UNL1       -0.3501
     40 C          -6.8278    6.1235   26.9272 C.3     1  UNL1        0.1637
     41 C          -5.4702    5.5079   26.7604 C.3     1  UNL1        0.1257
     42 N          -1.2537    3.1948   22.4046 N.pl3   1  UNL1       -0.2729
     43 C           0.0954    2.5611   22.2368 C.3     1  UNL1        0.1257
     44 C           0.6699    2.3724   20.8640 C.3     1  UNL1        0.1637
     45 O          -0.1048    2.8173   19.6591 O.3     1  UNL1       -0.3501
     46 C          -1.4541    3.4509   19.8270 C.3     1  UNL1        0.1637
     47 C          -2.0285    3.6397   21.1997 C.3     1  UNL1        0.1257
@<TRIPOS>BOND
     1    27    28    1
     2    28    29    1
     3    28    19    1
     4    19    20    1
     5    20    21    1
     6    21    22    1
     7    22    23   am
     8    23    24    2
     9    23    13    1
    10    13    14   ar
    11    14    15   ar
    12    15    16   ar
    13    16     7    1
    14     7     8   am
    15     8     9    2
    16     8    10   am
    17    10     1    1
    18     1     2   ar
    19     2     3   ar
    20     3     4   ar
    21     4    30    1
    22    30    31   ar
    23    31    32   ar
    24    32    36    1
    25    36    37    1
    26    37    38    1
    27    38    39    1
    28    39    40    1
    29    40    41    1
    30    32    33   ar
    31    33    34   ar
    32    34    42    1
    33    42    43    1
    34    43    44    1
    35    44    45    1
    36    45    46    1
    37    46    47    1
    38    34    35   ar
    39     4     5   ar
    40     5     6   ar
    41    16    17   ar
    42    17    18   ar
    43    22    25    1
    44    25    26    1
    45    26    19    1
    46    18    13   ar
    47     6     1   ar
    48    35    30   ar
    49    41    36    1
    50    47    42    1
    51     7    11    1
    52    10    12    1
@<TRIPOS>MOLECULE
*****
 47 52 0 0 0
SMALL
GASTEIGER

@<TRIPOS>ATOM
      1 C           6.0047   -2.4658   32.7471 C.ar    1  UNL1        0.0516
      2 C           6.8879   -1.4045   33.3333 C.ar    1  UNL1        0.0148
      3 C           6.2797   -0.2145   34.0143 C.ar    1  UNL1        0.0043
      4 C           4.7882   -0.0858   34.1092 C.ar    1  UNL1        0.0361
      5 C           3.9050   -1.1471   33.5230 C.ar    1  UNL1        0.0043
      6 C           4.5133   -2.3371   32.8420 C.ar    1  UNL1        0.0148
      7 N           7.3828   -4.8553   29.8939 N.am    1  UNL1       -0.2681
      8 C           6.7745   -3.6653   30.5748 C.2     1  UNL1        0.3082
      9 O           6.3277   -2.4847   29.7646 O.2     1  UNL1       -0.2522
     10 N           6.6130   -3.6559   32.0661 N.am    1  UNL1       -0.2681
     11 H           7.6760   -5.6302   30.4257 H       1  UNL1        0.1564
     12 H           6.9063   -4.4308   32.5978 H       1  UNL1        0.1564
     13 C           7.8673   -4.8837   25.4200 C.ar    1  UNL1        0.0537
     14 C           6.9267   -5.8488   26.0788 C.ar    1  UNL1        0.0058
     15 C           6.7652   -5.8393   27.5700 C.ar    1  UNL1        0.0149
     16 C           7.5443   -4.8647   28.4026 C.ar    1  UNL1        0.0516
     17 C           8.4848   -3.8996   27.7439 C.ar    1  UNL1        0.0149
     18 C           8.6463   -3.9091   26.2526 C.ar    1  UNL1        0.0058
     19 C           4.9101   -2.9708   21.3157 C.3     1  UNL1        0.0610
     20 C           6.1111   -3.6211   20.6955 C.3     1  UNL1        0.0375
     21 C           7.1506   -4.2619   21.5665 C.3     1  UNL1        0.0951
     22 N           6.9892   -4.2524   23.0578 N.am    1  UNL1       -0.2760
     23 C           8.0287   -4.8932   23.9288 C.2     1  UNL1        0.2490
     24 O           9.2297   -5.5434   23.3086 O.2     1  UNL1       -0.2699
     25 C           5.7881   -3.6021   23.6779 C.3     1  UNL1        0.0951
     26 C           4.7486   -2.9613   22.8069 C.3     1  UNL1        0.0375
     27 C           3.7454   -2.7336   19.0054 C.3     1  UNL1        0.0896
     28 N           3.8705   -2.3300   20.4446 N.3     1  UNL1       -0.2715
     29 C           2.9560   -1.2856   21.0128 C.3     1  UNL1        0.0896
     30 C           4.1799    1.1043   34.7903 C.ar    1  UNL1        0.1680
     31 N           3.1436    1.9254   34.0818 N.ar    1  UNL1       -0.1944
     32 C           2.5353    3.1154   34.7627 C.ar    1  UNL1        0.2240
     33 N           2.9633    3.4844   36.1523 N.ar    1  UNL1       -0.1807
     34 C           3.9995    2.6633   36.8608 C.ar    1  UNL1        0.2240
     35 N           4.6079    1.4732   36.1797 N.ar    1  UNL1       -0.1944
     36 N           1.4991    3.9365   34.0543 N.pl3   1  UNL1       -0.2729
     37 C           1.0461    3.5476   32.6782 C.3     1  UNL1        0.1257
     38 C           0.0099    4.3687   31.9697 C.3     1  UNL1        0.1637
     39 O          -0.5735    5.5787   32.6373 O.3     1  UNL1       -0.3501
     40 C          -0.1205    5.9676   34.0134 C.3     1  UNL1        0.1637
     41 C           0.9158    5.1465   34.7219 C.3     1  UNL1        0.1257
     42 N           4.4275    3.0322   38.2503 N.pl3   1  UNL1       -0.2729
     43 C           3.5877    3.9659   39.0706 C.3     1  UNL1        0.1257
     44 C           4.0157    4.3348   40.4602 C.3     1  UNL1        0.1637
     45 O           5.2834    3.7701   41.0293 O.3     1  UNL1       -0.3501
     46 C           6.1232    2.8364   40.2089 C.3     1  UNL1        0.1637
     47 C           5.6952    2.4675   38.8194 C.3     1  UNL1        0.1257
@<TRIPOS>BOND
     1    27    28    1
     2    28    29    1
     3    28    19    1
     4    19    20    1
     5    20    21    1
     6    21    22    1
     7    22    23   am
     8    23    24    2
     9    23    13    1
    10    13    14   ar
    11    14    15   ar
    12    15    16   ar
    13    16     7    1
    14     7     8   am
    15     8     9    2
    16     8    10   am
    17    10     1    1
    18     1     2   ar
    19     2     3   ar
    20     3     4   ar
    21     4    30    1
    22    30    31   ar
    23    31    32   ar
    24    32    36    1
    25    36    37    1
    26    37    38    1
    27    38    39    1
    28    39    40    1
    29    40    41    1
    30    32    33   ar
    31    33    34   ar
    32    34    42    1
    33    42    43    1
    34    43    44    1
    35    44    45    1
    36    45    46    1
    37    46    47    1
    38    34    35   ar
    39     4     5   ar
    40     5     6   ar
    41    16    17   ar
    42    17    18   ar
    43    22    25    1
    44    25    26    1
    45    26    19    1
    46    18    13   ar
    47     6     1   ar
    48    35    30   ar
    49    41    36    1
    50    47    42    1
    51     7    11    1
    52    10    12    1
@<TRIPOS>MOLECULE
*****
 47 52 0 0 0
SMALL
GASTEIGER

@<TRIPOS>ATOM
      1 C           0.8193    2.3413   28.7075 C.ar    1  UNL1        0.0516
      2 C           1.2799    3.4197   27.7722 C.ar    1  UNL1        0.0148
      3 C           0.5402    3.6677   26.4911 C.ar    1  UNL1        0.0043
      4 C          -0.6602    2.8374   26.1453 C.ar    1  UNL1        0.0361
      5 C          -1.1208    1.7590   27.0807 C.ar    1  UNL1        0.0043
      6 C          -0.3811    1.5109   28.3617 C.ar    1  UNL1        0.0148
      7 N           3.3976    0.8253   31.3159 N.am    1  UNL1       -0.2681
      8 C           2.6579    1.0733   30.0348 C.2     1  UNL1        0.3082
      9 O           3.0170    0.3013   28.7998 O.2     1  UNL1       -0.2522
     10 N           1.5591    2.0932   29.9886 N.am    1  UNL1       -0.2681
     11 H           3.1619    1.3319   32.1264 H       1  UNL1        0.1564
     12 H           1.3234    2.5999   30.7992 H       1  UNL1        0.1564
     13 C           6.6943   -2.2347   31.4545 C.ar    1  UNL1        0.0537
     14 C           6.8965   -0.9474   30.7113 C.ar    1  UNL1        0.0058
     15 C           5.7976    0.0725   30.6651 C.ar    1  UNL1        0.0149
     16 C           4.4965   -0.1948   31.3621 C.ar    1  UNL1        0.0516
     17 C           4.2943   -1.4819   32.1052 C.ar    1  UNL1        0.0149
     18 C           5.3932   -2.5019   32.1514 C.ar    1  UNL1        0.0058
     19 C           7.9164   -6.5686   28.4588 C.3     1  UNL1        0.0610
     20 C           8.9742   -6.4839   29.5189 C.3     1  UNL1        0.0375
     21 C           8.9331   -5.3792   30.5329 C.3     1  UNL1        0.0951
     22 N           7.8343   -4.3593   30.4867 N.am    1  UNL1       -0.2760
     23 C           7.7932   -3.2546   31.5006 C.2     1  UNL1        0.2490
     24 O           8.8510   -3.1699   32.5607 O.2     1  UNL1       -0.2699
     25 C           6.7765   -4.4440   29.4266 C.3     1  UNL1        0.0951
     26 C           6.8176   -5.5487   28.4127 C.3     1  UNL1        0.0375
     27 C           7.2756   -7.5010   26.1200 C.3     1  UNL1        0.0896
     28 N           7.9575   -7.6733   27.4449 N.3     1  UNL1       -0.2715
     29 C           8.6805   -8.9502   27.7559 C.3     1  UNL1        0.0896
     30 C          -1.3999    3.0854   24.8642 C.ar    1  UNL1        0.1680
     31 N          -2.8162    3.5784   24.8993 N.ar    1  UNL1       -0.1944
     32 C          -3.5560    3.8265   23.6183 C.ar    1  UNL1        0.2240
     33 N          -2.8795    3.5815   22.3020 N.ar    1  UNL1       -0.1807
     34 C          -1.4633    3.0886   22.2669 C.ar    1  UNL1        0.2240
     35 N          -0.7235    2.8405   23.5480 N.ar    1  UNL1       -0.1944
     36 N          -4.9722    4.3194   23.6534 N.pl3   1  UNL1       -0.2729
     37 C          -5.5295    4.9106   24.9143 C.3     1  UNL1        0.1257
     38 C          -6.9458    5.4036   24.9494 C.3     1  UNL1        0.1637
     39 O          -7.8047    5.3054   23.7237 O.3     1  UNL1       -0.3501
     40 C          -7.2474    4.7142   22.4627 C.3     1  UNL1        0.1637
     41 C          -5.8312    4.2212   22.4275 C.3     1  UNL1        0.1257
     42 N          -0.7868    2.8436   20.9507 N.pl3   1  UNL1       -0.2729
     43 C          -1.0693    3.7425   19.7836 C.3     1  UNL1        0.1257
     44 C          -0.3928    3.4976   18.4673 C.3     1  UNL1        0.1637
     45 O           0.5661    2.3538   18.3182 O.3     1  UNL1       -0.3501
     46 C           0.8485    1.4549   19.4854 C.3     1  UNL1        0.1637
     47 C           0.1721    1.6998   20.8016 C.3     1  UNL1        0.1257
@<TRIPOS>BOND
     1    27    28    1
     2    28    29    1
     3    28    19    1
     4    19    20    1
     5    20    21    1
     6    21    22    1
     7    22    23   am
     8    23    24    2
     9    23    13    1
    10    13    14   ar
    11    14    15   ar
    12    15    16   ar
    13    16     7    1
    14     7     8   am
    15     8     9    2
    16     8    10   am
    17    10     1    1
    18     1     2   ar
    19     2     3   ar
    20     3     4   ar
    21     4    30    1
    22    30    31   ar
    23    31    32   ar
    24    32    36    1
    25    36    37    1
    26    37    38    1
    27    38    39    1
    28    39    40    1
    29    40    41    1
    30    32    33   ar
    31    33    34   ar
    32    34    42    1
    33    42    43    1
    34    43    44    1
    35    44    45    1
    36    45    46    1
    37    46    47    1
    38    34    35   ar
    39     4     5   ar
    40     5     6   ar
    41    16    17   ar
    42    17    18   ar
    43    22    25    1
    44    25    26    1
    45    26    19    1
    46    18    13   ar
    47     6     1   ar
    48    35    30   ar
    49    41    36    1
    50    47    42    1
    51     7    11    1
    52    10    12    1
@<TRIPOS>MOLECULE
*****
 47 52 0 0 0
SMALL
GASTEIGER

@<TRIPOS>ATOM
      1 C           0.8069    2.6787   28.6232 C.ar    1  UNL1        0.0516
      2 C          -0.2190    1.6702   28.1983 C.ar    1  UNL1        0.0148
      3 C          -0.9712    1.8607   26.9147 C.ar    1  UNL1        0.0043
      4 C          -0.6976    3.0597   26.0559 C.ar    1  UNL1        0.0361
      5 C           0.3282    4.0682   26.4808 C.ar    1  UNL1        0.0043
      6 C           1.0805    3.8777   27.7644 C.ar    1  UNL1        0.0148
      7 N           3.3848    1.2540   31.2830 N.am    1  UNL1       -0.2681
      8 C           2.6325    1.4445   29.9994 C.2     1  UNL1        0.3082
      9 O           2.9537    0.5913   28.8082 O.2     1  UNL1       -0.2522
     10 N           1.5592    2.4882   29.9069 N.am    1  UNL1       -0.2681
     11 H           3.1739    1.8140   32.0649 H       1  UNL1        0.1564
     12 H           1.3484    3.0481   30.6887 H       1  UNL1        0.1564
     13 C           6.6050   -1.8771   31.5606 C.ar    1  UNL1        0.0537
     14 C           5.2403   -2.1531   32.1189 C.ar    1  UNL1        0.0058
     15 C           4.1670   -1.1094   32.0263 C.ar    1  UNL1        0.0149
     16 C           4.4582    0.2103   31.3756 C.ar    1  UNL1        0.0516
     17 C           5.8228    0.4864   30.8173 C.ar    1  UNL1        0.0149
     18 C           6.8962   -0.5573   30.9098 C.ar    1  UNL1        0.0058
     19 C           7.8461   -6.2500   28.6303 C.3     1  UNL1        0.0610
     20 C           8.8635   -6.1839   29.7304 C.3     1  UNL1        0.0375
     21 C           8.8076   -5.0742   30.7380 C.3     1  UNL1        0.0951
     22 N           7.7343   -4.0305   30.6455 N.am    1  UNL1       -0.2760
     23 C           7.6784   -2.9207   31.6531 C.2     1  UNL1        0.2490
     24 O           8.6958   -2.8546   32.7533 O.2     1  UNL1       -0.2699
     25 C           6.7168   -4.0966   29.5453 C.3     1  UNL1        0.0951
     26 C           6.7727   -5.2063   28.5377 C.3     1  UNL1        0.0375
     27 C           8.7993   -8.5391   27.8548 C.3     1  UNL1        0.0896
     28 N           7.9020   -7.3598   27.6226 N.3     1  UNL1       -0.2715
     29 C           7.0606   -7.2902   26.3828 C.3     1  UNL1        0.0896
     30 C          -1.4499    3.2502   24.7722 C.ar    1  UNL1        0.1680
     31 N          -0.7791    2.9672   23.4607 N.ar    1  UNL1       -0.1944
     32 C          -1.5313    3.1577   22.1771 C.ar    1  UNL1        0.2240
     33 N          -2.9544    3.6312   22.2048 N.ar    1  UNL1       -0.1807
     34 C          -3.6252    3.9142   23.5163 C.ar    1  UNL1        0.2240
     35 N          -2.8729    3.7237   24.8000 N.ar    1  UNL1       -0.1944
     36 N          -0.8605    2.8748   20.8656 N.pl3   1  UNL1       -0.2729
     37 C           0.0767    1.7106   20.7384 C.3     1  UNL1        0.1257
     38 C           0.7476    1.4276   19.4269 C.3     1  UNL1        0.1637
     39 O           0.4811    2.3088   18.2427 O.3     1  UNL1       -0.3501
     40 C          -0.4562    3.4731   18.3699 C.3     1  UNL1        0.1637
     41 C          -1.1270    3.7560   19.6813 C.3     1  UNL1        0.1257
     42 N          -5.0482    4.3877   23.5441 N.pl3   1  UNL1       -0.2729
     43 C          -5.9126    4.2372   22.3275 C.3     1  UNL1        0.1257
     44 C          -7.3356    4.7107   22.3552 C.3     1  UNL1        0.1637
     45 O          -7.8943    5.3347   23.5996 O.3     1  UNL1       -0.3501
     46 C          -7.0299    5.4851   24.8163 C.3     1  UNL1        0.1637
     47 C          -5.6069    5.0116   24.7885 C.3     1  UNL1        0.1257
@<TRIPOS>BOND
     1    27    28    1
     2    28    29    1
     3    28    19    1
     4    19    20    1
     5    20    21    1
     6    21    22    1
     7    22    23   am
     8    23    24    2
     9    23    13    1
    10    13    14   ar
    11    14    15   ar
    12    15    16   ar
    13    16     7    1
    14     7     8   am
    15     8     9    2
    16     8    10   am
    17    10     1    1
    18     1     2   ar
    19     2     3   ar
    20     3     4   ar
    21     4    30    1
    22    30    31   ar
    23    31    32   ar
    24    32    36    1
    25    36    37    1
    26    37    38    1
    27    38    39    1
    28    39    40    1
    29    40    41    1
    30    32    33   ar
    31    33    34   ar
    32    34    42    1
    33    42    43    1
    34    43    44    1
    35    44    45    1
    36    45    46    1
    37    46    47    1
    38    34    35   ar
    39     4     5   ar
    40     5     6   ar
    41    16    17   ar
    42    17    18   ar
    43    22    25    1
    44    25    26    1
    45    26    19    1
    46    18    13   ar
    47     6     1   ar
    48    35    30   ar
    49    41    36    1
    50    47    42    1
    51     7    11    1
    52    10    12    1
@<TRIPOS>MOLECULE
*****
 47 52 0 0 0
SMALL
GASTEIGER

@<TRIPOS>ATOM
      1 C           2.0316    1.5046   18.8485 C.ar    1  UNL1        0.0516
      2 C           1.7004    2.9585   18.6863 C.ar    1  UNL1        0.0148
      3 C           0.4121    3.4997   19.2316 C.ar    1  UNL1        0.0043
      4 C          -0.5450    2.5869   19.9392 C.ar    1  UNL1        0.0361
      5 C          -0.2138    1.1329   20.1014 C.ar    1  UNL1        0.0043
      6 C           1.0745    0.5918   19.5561 C.ar    1  UNL1        0.0148
      7 N           5.3647   -0.6244   18.5207 N.am    1  UNL1       -0.2681
      8 C           4.0764   -0.0833   19.0660 C.2     1  UNL1        0.3082
      9 O           3.5446   -0.5889   20.3743 O.2     1  UNL1       -0.2522
     10 N           3.3199    0.9634   18.3032 N.am    1  UNL1       -0.2681
     11 H           5.7138   -0.2925   17.6620 H       1  UNL1        0.1564
     12 H           3.6690    1.2953   17.4445 H       1  UNL1        0.1564
     13 C           7.6344   -3.7646   20.8093 C.ar    1  UNL1        0.0537
     14 C           8.1540   -2.3588   20.7482 C.ar    1  UNL1        0.0058
     15 C           7.3975   -1.3121   19.9853 C.ar    1  UNL1        0.0149
     16 C           6.1213   -1.6712   19.2835 C.ar    1  UNL1        0.0516
     17 C           5.6017   -3.0769   19.3446 C.ar    1  UNL1        0.0149
     18 C           6.3583   -4.1237   20.1075 C.ar    1  UNL1        0.0058
     19 C           7.5228   -5.4826   25.9363 C.3     1  UNL1        0.0610
     20 C           8.5688   -6.3056   25.2444 C.3     1  UNL1        0.0375
     21 C           8.8582   -6.0818   23.7897 C.3     1  UNL1        0.0951
     22 N           8.1016   -5.0351   23.0268 N.am    1  UNL1       -0.2760
     23 C           8.3910   -4.8113   21.5721 C.2     1  UNL1        0.2490
     24 O           9.4370   -5.6343   20.8803 O.2     1  UNL1       -0.2699
     25 C           7.0557   -4.2122   23.7187 C.3     1  UNL1        0.0951
     26 C           6.7663   -4.4359   25.1734 C.3     1  UNL1        0.0375
     27 C           6.1616   -4.9096   28.0737 C.3     1  UNL1        0.0896
     28 N           7.2334   -5.7064   27.3910 N.3     1  UNL1       -0.2715
     29 C           8.0159   -6.7270   28.1630 C.3     1  UNL1        0.0896
     30 C          -1.8334    3.1280   20.4845 C.ar    1  UNL1        0.1680
     31 N          -2.0440    3.2112   21.9673 N.ar    1  UNL1       -0.1944
     32 C          -3.3322    3.7523   22.5127 C.ar    1  UNL1        0.2240
     33 N          -4.4100    4.2103   21.5753 N.ar    1  UNL1       -0.1807
     34 C          -4.1994    4.1271   20.0925 C.ar    1  UNL1        0.2240
     35 N          -2.9111    3.5860   19.5471 N.ar    1  UNL1       -0.1944
     36 N          -3.5428    3.8355   23.9955 N.pl3   1  UNL1       -0.2729
     37 C          -2.4201    3.5013   24.9324 C.3     1  UNL1        0.1257
     38 C          -2.6307    3.5845   26.4152 C.3     1  UNL1        0.1637
     39 O          -3.9640    4.0018   26.9612 O.3     1  UNL1       -0.3501
     40 C          -5.0868    4.3360   26.0243 C.3     1  UNL1        0.1637
     41 C          -4.8762    4.2528   24.5415 C.3     1  UNL1        0.1257
     42 N          -5.2771    4.5850   19.1550 N.pl3   1  UNL1       -0.2729
     43 C          -6.6973    4.6712   19.6298 C.3     1  UNL1        0.1257
     44 C          -7.7751    5.1291   18.6924 C.3     1  UNL1        0.1637
     45 O          -7.4326    5.5009   17.2801 O.3     1  UNL1       -0.3501
     46 C          -6.0123    5.4148   16.8054 C.3     1  UNL1        0.1637
     47 C          -4.9346    4.9569   17.7428 C.3     1  UNL1        0.1257
@<TRIPOS>BOND
     1    27    28    1
     2    28    29    1
     3    28    19    1
     4    19    20    1
     5    20    21    1
     6    21    22    1
     7    22    23   am
     8    23    24    2
     9    23    13    1
    10    13    14   ar
    11    14    15   ar
    12    15    16   ar
    13    16     7    1
    14     7     8   am
    15     8     9    2
    16     8    10   am
    17    10     1    1
    18     1     2   ar
    19     2     3   ar
    20     3     4   ar
    21     4    30    1
    22    30    31   ar
    23    31    32   ar
    24    32    36    1
    25    36    37    1
    26    37    38    1
    27    38    39    1
    28    39    40    1
    29    40    41    1
    30    32    33   ar
    31    33    34   ar
    32    34    42    1
    33    42    43    1
    34    43    44    1
    35    44    45    1
    36    45    46    1
    37    46    47    1
    38    34    35   ar
    39     4     5   ar
    40     5     6   ar
    41    16    17   ar
    42    17    18   ar
    43    22    25    1
    44    25    26    1
    45    26    19    1
    46    18    13   ar
    47     6     1   ar
    48    35    30   ar
    49    41    36    1
    50    47    42    1
    51     7    11    1
    52    10    12    1
@<TRIPOS>MOLECULE
*****
 47 52 0 0 0
SMALL
GASTEIGER

@<TRIPOS>ATOM
      1 C           2.1874    2.0982   19.6322 C.ar    1  UNL1        0.0516
      2 C           0.9866    1.8430   18.7704 C.ar    1  UNL1        0.0148
      3 C          -0.3681    2.3097   19.2142 C.ar    1  UNL1        0.0043
      4 C          -0.5218    3.0317   20.5200 C.ar    1  UNL1        0.0361
      5 C           0.6790    3.2870   21.3818 C.ar    1  UNL1        0.0043
      6 C           2.0337    2.8202   20.9379 C.ar    1  UNL1        0.0148
      7 N           5.5004   -0.0683   19.3486 N.am    1  UNL1       -0.2681
      8 C           4.1458    0.3984   19.7925 C.2     1  UNL1        0.3082
      9 O           3.3948   -0.3679   20.8408 O.2     1  UNL1       -0.2522
     10 N           3.5421    1.6314   19.1882 N.am    1  UNL1       -0.2681
     11 H           5.9932    0.4347   18.6606 H       1  UNL1        0.1564
     12 H           4.0350    2.1344   18.5002 H       1  UNL1        0.1564
     13 C           7.3115   -3.7675   21.1615 C.ar    1  UNL1        0.0537
     14 C           6.0740   -3.8732   20.3202 C.ar    1  UNL1        0.0058
     15 C           5.4704   -2.6401   19.7160 C.ar    1  UNL1        0.0149
     16 C           6.1041   -1.3014   19.9529 C.ar    1  UNL1        0.0516
     17 C           7.3415   -1.1957   20.7941 C.ar    1  UNL1        0.0149
     18 C           7.9452   -2.4287   21.3984 C.ar    1  UNL1        0.0058
     19 C           7.4528   -5.8063   26.1688 C.3     1  UNL1        0.0610
     20 C           8.2106   -6.7707   25.3053 C.3     1  UNL1        0.0375
     21 C           8.3647   -6.5021   23.8376 C.3     1  UNL1        0.0951
     22 N           7.7610   -5.2691   23.2334 N.am    1  UNL1       -0.2760
     23 C           7.9152   -5.0005   21.7657 C.2     1  UNL1        0.2490
     24 O           8.6729   -5.9650   20.9023 O.2     1  UNL1       -0.2699
     25 C           7.0033   -4.3047   24.0968 C.3     1  UNL1        0.0951
     26 C           6.8492   -4.5732   25.5645 C.3     1  UNL1        0.0375
     27 C           6.3013   -5.2952   28.4409 C.3     1  UNL1        0.0896
     28 N           7.2987   -6.0749   27.6365 N.3     1  UNL1       -0.2715
     29 C           8.1420   -7.1231   28.2997 C.3     1  UNL1        0.0896
     30 C          -1.8765    3.4985   20.9639 C.ar    1  UNL1        0.1680
     31 N          -2.9185    3.8536   19.9451 N.ar    1  UNL1       -0.1944
     32 C          -4.2731    4.3204   20.3889 C.ar    1  UNL1        0.2240
     33 N          -4.5858    4.4321   21.8518 N.ar    1  UNL1       -0.1807
     34 C          -3.5438    4.0769   22.8707 C.ar    1  UNL1        0.2240
     35 N          -2.1891    3.6102   22.4267 N.ar    1  UNL1       -0.1944
     36 N          -5.3151    4.6755   19.3701 N.pl3   1  UNL1       -0.2729
     37 C          -6.7553    4.7812   19.7757 C.3     1  UNL1        0.1257
     38 C          -7.7974    5.1363   18.7568 C.3     1  UNL1        0.1637
     39 O          -7.3991    5.3857   17.3323 O.3     1  UNL1       -0.3501
     40 C          -5.9589    5.2799   16.9266 C.3     1  UNL1        0.1637
     41 C          -4.9169    4.9248   17.9455 C.3     1  UNL1        0.1257
     42 N          -3.8564    4.1886   24.3335 N.pl3   1  UNL1       -0.2729
     43 C          -5.1342    4.8349   24.7801 C.3     1  UNL1        0.1257
     44 C          -5.4469    4.9466   26.2429 C.3     1  UNL1        0.1637
     45 O          -4.4817    4.4120   27.2591 O.3     1  UNL1       -0.3501
     46 C          -3.2039    3.7656   26.8124 C.3     1  UNL1        0.1637
     47 C          -2.8913    3.6539   25.3496 C.3     1  UNL1        0.1257
@<TRIPOS>BOND
     1    27    28    1
     2    28    29    1
     3    28    19    1
     4    19    20    1
     5    20    21    1
     6    21    22    1
     7    22    23   am
     8    23    24    2
     9    23    13    1
    10    13    14   ar
    11    14    15   ar
    12    15    16   ar
    13    16     7    1
    14     7     8   am
    15     8     9    2
    16     8    10   am
    17    10     1    1
    18     1     2   ar
    19     2     3   ar
    20     3     4   ar
    21     4    30    1
    22    30    31   ar
    23    31    32   ar
    24    32    36    1
    25    36    37    1
    26    37    38    1
    27    38    39    1
    28    39    40    1
    29    40    41    1
    30    32    33   ar
    31    33    34   ar
    32    34    42    1
    33    42    43    1
    34    43    44    1
    35    44    45    1
    36    45    46    1
    37    46    47    1
    38    34    35   ar
    39     4     5   ar
    40     5     6   ar
    41    16    17   ar
    42    17    18   ar
    43    22    25    1
    44    25    26    1
    45    26    19    1
    46    18    13   ar
    47     6     1   ar
    48    35    30   ar
    49    41    36    1
    50    47    42    1
    51     7    11    1
    52    10    12    1
@<TRIPOS>MOLECULE
*****
 47 52 0 0 0
SMALL
GASTEIGER

@<TRIPOS>ATOM
      1 C           1.3677   -0.0043   28.8344 C.ar    1  UNL1        0.0516
      2 C           1.9416    0.8960   27.7808 C.ar    1  UNL1        0.0148
      3 C           1.0404    1.8056   26.9994 C.ar    1  UNL1        0.0043
      4 C          -0.4346    1.8149   27.2717 C.ar    1  UNL1        0.0361
      5 C          -1.0085    0.9146   28.3253 C.ar    1  UNL1        0.0043
      6 C          -0.1074    0.0050   29.1067 C.ar    1  UNL1        0.0148
      7 N           3.8528   -1.3210   31.6345 N.am    1  UNL1       -0.2681
      8 C           2.9516   -0.4114   30.8532 C.2     1  UNL1        0.3082
      9 O           2.7332    1.0008   31.3093 O.2     1  UNL1       -0.2522
     10 N           2.2689   -0.9139   29.6158 N.am    1  UNL1       -0.2681
     11 H           3.9961   -2.2478   31.3351 H       1  UNL1        0.1564
     12 H           2.4122   -1.8408   29.3164 H       1  UNL1        0.1564
     13 C           5.9012    0.1866   35.3468 C.ar    1  UNL1        0.0537
     14 C           6.2937    0.7245   34.0026 C.ar    1  UNL1        0.0058
     15 C           5.6109    0.2219   32.7652 C.ar    1  UNL1        0.0149
     16 C           4.5356   -0.8184   32.8719 C.ar    1  UNL1        0.0516
     17 C           4.1431   -1.3563   34.2160 C.ar    1  UNL1        0.0149
     18 C           4.8259   -0.8537   35.4535 C.ar    1  UNL1        0.0058
     19 C           4.8025    4.1071   38.9067 C.3     1  UNL1        0.0610
     20 C           6.0791    3.4704   39.3699 C.3     1  UNL1        0.0375
     21 C           6.6730    2.3310   38.5957 C.3     1  UNL1        0.0951
     22 N           5.9902    1.8285   37.3584 N.am    1  UNL1       -0.2760
     23 C           6.5840    0.6892   36.5842 C.2     1  UNL1        0.2490
     24 O           7.8607    0.0524   37.0474 O.2     1  UNL1       -0.2699
     25 C           4.7135    2.4653   36.8951 C.3     1  UNL1        0.0951
     26 C           4.1197    3.6046   37.6693 C.3     1  UNL1        0.0375
     27 C           3.9123    5.0862   41.1425 C.3     1  UNL1        0.0896
     28 N           4.2086    5.2464   39.6808 N.3     1  UNL1       -0.2715
     29 C           3.9112    6.5459   38.9933 C.3     1  UNL1        0.0896
     30 C          -1.3358    2.7246   26.4903 C.ar    1  UNL1        0.1680
     31 N          -2.2317    3.6901   27.2080 N.ar    1  UNL1       -0.1944
     32 C          -3.1329    4.5997   26.4267 C.ar    1  UNL1        0.2240
     33 N          -3.1382    4.5438   24.9277 N.ar    1  UNL1       -0.1807
     34 C          -2.2422    3.5783   24.2100 C.ar    1  UNL1        0.2240
     35 N          -1.3410    2.6686   24.9914 N.ar    1  UNL1       -0.1944
     36 N          -4.0288    5.5653   27.1443 N.pl3   1  UNL1       -0.2729
     37 C          -3.4360    6.6349   28.0129 C.3     1  UNL1        0.1257
     38 C          -4.3320    7.6005   28.7305 C.3     1  UNL1        0.1637
     39 O          -5.8207    7.4964   28.5796 O.3     1  UNL1       -0.3501
     40 C          -6.4136    6.4268   27.7109 C.3     1  UNL1        0.1637
     41 C          -5.5176    5.4612   26.9933 C.3     1  UNL1        0.1257
     42 N          -2.2475    3.5223   22.7111 N.pl3   1  UNL1       -0.2729
     43 C          -0.9814    3.2153   21.9677 C.3     1  UNL1        0.1257
     44 C          -0.9866    3.1593   20.4687 C.3     1  UNL1        0.1637
     45 O          -2.2579    3.4104   19.7132 O.3     1  UNL1       -0.3501
     46 C          -3.5240    3.7174   20.4567 C.3     1  UNL1        0.1637
     47 C          -3.5188    3.7733   21.9557 C.3     1  UNL1        0.1257
@<TRIPOS>BOND
     1    27    28    1
     2    28    29    1
     3    28    19    1
     4    19    20    1
     5    20    21    1
     6    21    22    1
     7    22    23   am
     8    23    24    2
     9    23    13    1
    10    13    14   ar
    11    14    15   ar
    12    15    16   ar
    13    16     7    1
    14     7     8   am
    15     8     9    2
    16     8    10   am
    17    10     1    1
    18     1     2   ar
    19     2     3   ar
    20     3     4   ar
    21     4    30    1
    22    30    31   ar
    23    31    32   ar
    24    32    36    1
    25    36    37    1
    26    37    38    1
    27    38    39    1
    28    39    40    1
    29    40    41    1
    30    32    33   ar
    31    33    34   ar
    32    34    42    1
    33    42    43    1
    34    43    44    1
    35    44    45    1
    36    45    46    1
    37    46    47    1
    38    34    35   ar
    39     4     5   ar
    40     5     6   ar
    41    16    17   ar
    42    17    18   ar
    43    22    25    1
    44    25    26    1
    45    26    19    1
    46    18    13   ar
    47     6     1   ar
    48    35    30   ar
    49    41    36    1
    50    47    42    1
    51     7    11    1
    52    10    12    1
@<TRIPOS>MOLECULE
*****
 47 52 0 0 0
SMALL
GASTEIGER

@<TRIPOS>ATOM
      1 C           1.3951   -0.0042   28.7472 C.ar    1  UNL1        0.0516
      2 C           1.9532    0.8640   27.6587 C.ar    1  UNL1        0.0148
      3 C           1.0454    1.7738   26.8854 C.ar    1  UNL1        0.0043
      4 C          -0.4205    1.8154   27.2005 C.ar    1  UNL1        0.0361
      5 C          -0.9786    0.9471   28.2889 C.ar    1  UNL1        0.0043
      6 C          -0.0708    0.0374   29.0623 C.ar    1  UNL1        0.0148
      7 N           3.8842   -1.3294   31.5397 N.am    1  UNL1       -0.2681
      8 C           2.9763   -0.4196   30.7664 C.2     1  UNL1        0.3082
      9 O           2.7417    0.9845   31.2390 O.2     1  UNL1       -0.2522
     10 N           2.3030   -0.9140   29.5206 N.am    1  UNL1       -0.2681
     11 H           4.0381   -2.2510   31.2295 H       1  UNL1        0.1564
     12 H           2.4570   -1.8356   29.2104 H       1  UNL1        0.1564
     13 C           5.9041    0.1535   35.2776 C.ar    1  UNL1        0.0537
     14 C           4.8530   -0.9130   35.3657 C.ar    1  UNL1        0.0058
     15 C           4.1797   -1.4073   34.1198 C.ar    1  UNL1        0.0149
     16 C           4.5575   -0.8351   32.7857 C.ar    1  UNL1        0.0516
     17 C           5.6086    0.2314   32.6975 C.ar    1  UNL1        0.0149
     18 C           6.2819    0.7257   33.9435 C.ar    1  UNL1        0.0058
     19 C           4.7999    4.0770   38.8324 C.3     1  UNL1        0.0610
     20 C           6.0656    3.4282   39.3087 C.3     1  UNL1        0.0375
     21 C           6.6581    2.2851   38.5390 C.3     1  UNL1        0.0951
     22 N           5.9849    1.7909   37.2931 N.am    1  UNL1       -0.2760
     23 C           6.5774    0.6478   36.5235 C.2     1  UNL1        0.2490
     24 O           7.8431   -0.0010   36.9997 O.2     1  UNL1       -0.2699
     25 C           4.7191    2.4396   36.8169 C.3     1  UNL1        0.0951
     26 C           4.1266    3.5827   37.5865 C.3     1  UNL1        0.0375
     27 C           3.9111    6.5171   38.9094 C.3     1  UNL1        0.0896
     28 N           4.2074    5.2200   39.6021 N.3     1  UNL1       -0.2715
     29 C           3.9112    5.0661   41.0644 C.3     1  UNL1        0.0896
     30 C          -1.3284    2.7252   26.4271 C.ar    1  UNL1        0.1680
     31 N          -1.3420    2.6739   24.9281 N.ar    1  UNL1       -0.1944
     32 C          -2.2499    3.5836   24.1547 C.ar    1  UNL1        0.2240
     33 N          -3.1442    4.5447   24.8804 N.ar    1  UNL1       -0.1807
     34 C          -3.1306    4.5960   26.3794 C.ar    1  UNL1        0.2240
     35 N          -2.2227    3.6862   27.1528 N.ar    1  UNL1       -0.1944
     36 N          -2.2635    3.5323   22.6556 N.pl3   1  UNL1       -0.2729
     37 C          -0.9796    3.3600   21.8994 C.3     1  UNL1        0.1257
     38 C          -0.9932    3.3087   20.4003 C.3     1  UNL1        0.1637
     39 O          -2.2907    3.4297   19.6575 O.3     1  UNL1       -0.3501
     40 C          -3.5746    3.6020   20.4137 C.3     1  UNL1        0.1637
     41 C          -3.5610    3.6533   21.9128 C.3     1  UNL1        0.1257
     42 N          -4.0248    5.5570   27.1051 N.pl3   1  UNL1       -0.2729
     43 C          -5.5135    5.4608   26.9482 C.3     1  UNL1        0.1257
     44 C          -6.4078    6.4219   27.6739 C.3     1  UNL1        0.1637
     45 O          -5.8134    7.4791   28.5565 O.3     1  UNL1       -0.3501
     46 C          -4.3247    7.5753   28.7134 C.3     1  UNL1        0.1637
     47 C          -3.4305    6.6143   27.9877 C.3     1  UNL1        0.1257
@<TRIPOS>BOND
     1    27    28    1
     2    28    29    1
     3    28    19    1
     4    19    20    1
     5    20    21    1
     6    21    22    1
     7    22    23   am
     8    23    24    2
     9    23    13    1
    10    13    14   ar
    11    14    15   ar
    12    15    16   ar
    13    16     7    1
    14     7     8   am
    15     8     9    2
    16     8    10   am
    17    10     1    1
    18     1     2   ar
    19     2     3   ar
    20     3     4   ar
    21     4    30    1
    22    30    31   ar
    23    31    32   ar
    24    32    36    1
    25    36    37    1
    26    37    38    1
    27    38    39    1
    28    39    40    1
    29    40    41    1
    30    32    33   ar
    31    33    34   ar
    32    34    42    1
    33    42    43    1
    34    43    44    1
    35    44    45    1
    36    45    46    1
    37    46    47    1
    38    34    35   ar
    39     4     5   ar
    40     5     6   ar
    41    16    17   ar
    42    17    18   ar
    43    22    25    1
    44    25    26    1
    45    26    19    1
    46    18    13   ar
    47     6     1   ar
    48    35    30   ar
    49    41    36    1
    50    47    42    1
    51     7    11    1
    52    10    12    1
