@<TRIPOS>MOLECULE
*****
 23 25 0 0 0
SMALL
GASTEIGER

@<TRIPOS>ATOM
      1 C          -8.5629  -15.7128   24.7779 C.3     1  UNL1        0.0523
      2 C          -8.2194  -16.7140   23.7149 C.ar    1  UNL1        0.0657
      3 C          -6.8686  -16.9116   23.0934 C.ar    1  UNL1        0.0739
      4 C          -6.9808  -18.0130   22.0813 C.ar    1  UNL1        0.2434
      5 N          -8.4009  -18.4960   22.0773 N.ar    1  UNL1       -0.1276
      6 N          -9.1664  -17.6932   23.0869 N.ar    1  UNL1       -0.2300
      7 C         -10.6232  -17.8432   23.4116 C.ar    1  UNL1        0.0931
      8 C         -11.0541  -18.7551   24.5219 C.ar    1  UNL1        0.0209
      9 C         -12.5108  -18.9051   24.8465 C.ar    1  UNL1        0.0130
     10 C         -13.5366  -18.1432   24.0609 C.ar    1  UNL1        0.0586
     11 CL        -14.9933  -18.2932   24.3855 Cl      1  UNL1       -0.0822
     12 C         -13.1057  -17.2313   22.9506 C.ar    1  UNL1        0.0243
     13 C         -11.6490  -17.0813   22.6259 C.ar    1  UNL1        0.0761
     14 CL        -11.2180  -16.1694   21.5156 Cl      1  UNL1       -0.0806
     15 O          -5.8682  -18.5390   21.2237 O.3     1  UNL1       -0.4577
     16 C          -5.0732  -19.7290   21.6731 C.3     1  UNL1        0.2244
     17 C          -3.7098  -19.5385   22.2689 C.3     1  UNL1        0.1202
     18 N          -2.7645  -18.5374   21.6739 N.3     1  UNL1       -0.2653
     19 C          -1.8602  -18.9378   20.5461 C.3     1  UNL1        0.1047
     20 C          -0.9149  -17.9366   19.9512 C.3     1  UNL1        0.1595
     21 O          -0.8739  -16.5350   20.4840 O.3     1  UNL1       -0.3508
     22 C          -1.7781  -16.1346   21.6118 C.3     1  UNL1        0.1595
     23 C          -2.7234  -17.1358   22.2067 C.3     1  UNL1        0.1047
@<TRIPOS>BOND
     1     1     2    1
     2     2     3   ar
     3     3     4   ar
     4     4    15    1
     5    15    16    1
     6    16    17    1
     7    17    18    1
     8    18    19    1
     9    19    20    1
    10    20    21    1
    11    21    22    1
    12    22    23    1
    13     4     5   ar
    14     5     6   ar
    15     6     7    1
    16     7     8   ar
    17     8     9   ar
    18     9    10   ar
    19    10    11    1
    20    10    12   ar
    21    12    13   ar
    22    13    14    1
    23     6     2   ar
    24    13     7   ar
    25    23    18    1
@<TRIPOS>MOLECULE
*****
 23 25 0 0 0
SMALL
GASTEIGER

@<TRIPOS>ATOM
      1 C         -10.3264  -20.0182   18.9956 C.3     1  UNL1        0.0523
      2 C          -9.1359  -19.5290   19.7661 C.ar    1  UNL1        0.0657
      3 C          -7.7075  -19.5860   19.3117 C.ar    1  UNL1        0.0739
      4 C          -6.8537  -18.9892   20.3909 C.ar    1  UNL1        0.2434
      5 N          -7.7544  -18.5633   21.5123 N.ar    1  UNL1       -0.1276
      6 N          -9.1649  -18.8969   21.1261 N.ar    1  UNL1       -0.2300
      7 C         -10.3893  -18.6430   21.9545 C.ar    1  UNL1        0.0931
      8 C         -11.4322  -17.6774   21.4750 C.ar    1  UNL1        0.0209
      9 C         -12.6567  -17.4235   22.3034 C.ar    1  UNL1        0.0130
     10 C         -12.8383  -18.1353   23.6112 C.ar    1  UNL1        0.0586
     11 CL        -14.0627  -17.8814   24.4396 Cl      1  UNL1       -0.0822
     12 C         -11.7954  -19.1010   24.0907 C.ar    1  UNL1        0.0243
     13 C         -10.5709  -19.3548   23.2623 C.ar    1  UNL1        0.0761
     14 CL         -9.5280  -20.3206   23.7418 Cl      1  UNL1       -0.0806
     15 O          -5.3612  -18.8438   20.3551 O.3     1  UNL1       -0.4577
     16 C          -4.4853  -20.0381   20.5932 C.3     1  UNL1        0.2244
     17 C          -3.1788  -19.8785   21.3125 C.3     1  UNL1        0.1202
     18 N          -2.3465  -18.6501   21.0922 N.3     1  UNL1       -0.2653
     19 C          -2.6031  -17.4149   21.9036 C.3     1  UNL1        0.1047
     20 C          -1.7709  -16.1865   21.6833 C.3     1  UNL1        0.1595
     21 O          -0.6820  -16.1934   20.6517 O.3     1  UNL1       -0.3508
     22 C          -0.4254  -17.4286   19.8403 C.3     1  UNL1        0.1595
     23 C          -1.2576  -18.6569   20.0606 C.3     1  UNL1        0.1047
@<TRIPOS>BOND
     1     1     2    1
     2     2     3   ar
     3     3     4   ar
     4     4    15    1
     5    15    16    1
     6    16    17    1
     7    17    18    1
     8    18    19    1
     9    19    20    1
    10    20    21    1
    11    21    22    1
    12    22    23    1
    13     4     5   ar
    14     5     6   ar
    15     6     7    1
    16     7     8   ar
    17     8     9   ar
    18     9    10   ar
    19    10    11    1
    20    10    12   ar
    21    12    13   ar
    22    13    14    1
    23     6     2   ar
    24    13     7   ar
    25    23    18    1
@<TRIPOS>MOLECULE
*****
 23 25 0 0 0
SMALL
GASTEIGER

@<TRIPOS>ATOM
      1 C          -9.4270  -19.8457   19.4522 C.3     1  UNL1        0.0523
      2 C          -8.3987  -19.3105   20.4041 C.ar    1  UNL1        0.0657
      3 C          -6.9167  -19.2787   20.1747 C.ar    1  UNL1        0.0739
      4 C          -6.2740  -18.6616   21.3814 C.ar    1  UNL1        0.2434
      5 N          -7.3588  -18.3121   22.3566 N.ar    1  UNL1       -0.1276
      6 N          -8.6719  -18.7131   21.7527 N.ar    1  UNL1       -0.2300
      7 C         -10.0213  -18.5460   22.3861 C.ar    1  UNL1        0.0931
      8 C         -10.9853  -17.5340   21.8414 C.ar    1  UNL1        0.0209
      9 C         -12.3347  -17.3670   22.4748 C.ar    1  UNL1        0.0130
     10 C         -12.7202  -18.2119   23.6528 C.ar    1  UNL1        0.0586
     11 CL        -14.0696  -18.0448   24.2861 Cl      1  UNL1       -0.0822
     12 C         -11.7562  -19.2239   24.1974 C.ar    1  UNL1        0.0243
     13 C         -10.4068  -19.3909   23.5640 C.ar    1  UNL1        0.0761
     14 CL         -9.4427  -20.4030   24.1086 Cl      1  UNL1       -0.0806
     15 O          -4.8045  -18.4341   21.5782 O.3     1  UNL1       -0.4577
     16 C          -4.2693  -18.1299   22.9461 C.3     1  UNL1        0.2244
     17 C          -4.1762  -16.7085   23.4160 C.3     1  UNL1        0.1202
     18 N          -5.2729  -16.1226   24.2552 N.3     1  UNL1       -0.2653
     19 C          -6.4802  -15.5217   23.5986 C.3     1  UNL1        0.1047
     20 C          -7.5768  -14.9360   24.4379 C.3     1  UNL1        0.1595
     21 O          -7.4660  -14.9511   25.9337 O.3     1  UNL1       -0.3508
     22 C          -6.2587  -15.5520   26.5903 C.3     1  UNL1        0.1595
     23 C          -5.1621  -16.1378   25.7511 C.3     1  UNL1        0.1047
@<TRIPOS>BOND
     1     1     2    1
     2     2     3   ar
     3     3     4   ar
     4     4    15    1
     5    15    16    1
     6    16    17    1
     7    17    18    1
     8    18    19    1
     9    19    20    1
    10    20    21    1
    11    21    22    1
    12    22    23    1
    13     4     5   ar
    14     5     6   ar
    15     6     7    1
    16     7     8   ar
    17     8     9   ar
    18     9    10   ar
    19    10    11    1
    20    10    12   ar
    21    12    13   ar
    22    13    14    1
    23     6     2   ar
    24    13     7   ar
    25    23    18    1
@<TRIPOS>MOLECULE
*****
 23 25 0 0 0
SMALL
GASTEIGER

@<TRIPOS>ATOM
      1 C          -5.8581  -21.3753   20.4289 C.3     1  UNL1        0.0523
      2 C          -6.3395  -20.1463   21.1415 C.ar    1  UNL1        0.0657
      3 C          -7.7082  -19.9419   21.7202 C.ar    1  UNL1        0.0739
      4 C          -7.7514  -18.5752   22.3369 C.ar    1  UNL1        0.2434
      5 N          -6.4093  -17.9350   22.1394 N.ar    1  UNL1       -0.1276
      6 N          -5.5367  -18.9059   21.4006 N.ar    1  UNL1       -0.2300
      7 C          -4.1116  -18.6768   20.9926 C.ar    1  UNL1        0.0931
      8 C          -3.7202  -18.7744   19.5478 C.ar    1  UNL1        0.0209
      9 C          -2.2951  -18.5453   19.1398 C.ar    1  UNL1        0.0130
     10 C          -1.2614  -18.2186   20.1765 C.ar    1  UNL1        0.0586
     11 CL          0.1637  -17.9894   19.7684 Cl      1  UNL1       -0.0822
     12 C          -1.6528  -18.1209   21.6212 C.ar    1  UNL1        0.0243
     13 C          -3.0779  -18.3500   22.0293 C.ar    1  UNL1        0.0761
     14 CL         -3.4693  -18.2524   23.4741 Cl      1  UNL1       -0.0806
     15 O          -8.9296  -17.9573   23.0295 O.3     1  UNL1       -0.4577
     16 C          -9.2465  -16.5062   22.8201 C.3     1  UNL1        0.2244
     17 C          -8.2352  -15.4582   23.1793 C.3     1  UNL1        0.1202
     18 N          -7.6348  -15.4351   24.5537 N.3     1  UNL1       -0.2653
     19 C          -6.1486  -15.3208   24.7211 C.3     1  UNL1        0.1047
     20 C          -5.5483  -15.2977   26.0955 C.3     1  UNL1        0.1595
     21 O          -6.4342  -15.3889   27.3025 O.3     1  UNL1       -0.3508
     22 C          -7.9204  -15.5032   27.1351 C.3     1  UNL1        0.1595
     23 C          -8.5207  -15.5263   25.7607 C.3     1  UNL1        0.1047
@<TRIPOS>BOND
     1     1     2    1
     2     2     3   ar
     3     3     4   ar
     4     4    15    1
     5    15    16    1
     6    16    17    1
     7    17    18    1
     8    18    19    1
     9    19    20    1
    10    20    21    1
    11    21    22    1
    12    22    23    1
    13     4     5   ar
    14     5     6   ar
    15     6     7    1
    16     7     8   ar
    17     8     9   ar
    18     9    10   ar
    19    10    11    1
    20    10    12   ar
    21    12    13   ar
    22    13    14    1
    23     6     2   ar
    24    13     7   ar
    25    23    18    1
@<TRIPOS>MOLECULE
*****
 23 25 0 0 0
SMALL
GASTEIGER

@<TRIPOS>ATOM
      1 C          -6.0115  -21.3384   20.7440 C.3     1  UNL1        0.0523
      2 C          -6.4139  -20.1004   21.4892 C.ar    1  UNL1        0.0657
      3 C          -7.7110  -19.8890   22.2122 C.ar    1  UNL1        0.0739
      4 C          -7.6887  -18.5144   22.8120 C.ar    1  UNL1        0.2434
      5 N          -6.3778  -17.8761   22.4597 N.ar    1  UNL1       -0.1276
      6 N          -5.5899  -18.8563   21.6421 N.ar    1  UNL1       -0.2300
      7 C          -4.2189  -18.6318   21.0766 C.ar    1  UNL1        0.0931
      8 C          -3.9834  -18.7728   19.6020 C.ar    1  UNL1        0.0209
      9 C          -2.6123  -18.5483   19.0366 C.ar    1  UNL1        0.0130
     10 C          -1.4767  -18.1829   19.9458 C.ar    1  UNL1        0.0586
     11 CL         -0.1056  -17.9584   19.3804 Cl      1  UNL1       -0.0822
     12 C          -1.7121  -18.0419   21.4205 C.ar    1  UNL1        0.0243
     13 C          -3.0832  -18.2663   21.9859 C.ar    1  UNL1        0.0761
     14 CL         -3.3187  -18.1253   23.4607 Cl      1  UNL1       -0.0806
     15 O          -8.7849  -17.8880   23.6220 O.3     1  UNL1       -0.4577
     16 C          -9.8449  -18.7491   24.2425 C.3     1  UNL1        0.2244
     17 C         -11.1555  -18.9481   23.5406 C.3     1  UNL1        0.1202
     18 N         -11.4150  -18.2672   22.2294 N.3     1  UNL1       -0.2653
     19 C         -10.9068  -18.8744   20.9555 C.3     1  UNL1        0.1047
     20 C         -11.1663  -18.1936   19.6444 C.3     1  UNL1        0.1595
     21 O         -11.9341  -16.9055   19.6072 O.3     1  UNL1       -0.3508
     22 C         -12.4424  -16.2983   20.8812 C.3     1  UNL1        0.1595
     23 C         -12.1828  -16.9791   22.1923 C.3     1  UNL1        0.1047
@<TRIPOS>BOND
     1     1     2    1
     2     2     3   ar
     3     3     4   ar
     4     4    15    1
     5    15    16    1
     6    16    17    1
     7    17    18    1
     8    18    19    1
     9    19    20    1
    10    20    21    1
    11    21    22    1
    12    22    23    1
    13     4     5   ar
    14     5     6   ar
    15     6     7    1
    16     7     8   ar
    17     8     9   ar
    18     9    10   ar
    19    10    11    1
    20    10    12   ar
    21    12    13   ar
    22    13    14    1
    23     6     2   ar
    24    13     7   ar
    25    23    18    1
@<TRIPOS>MOLECULE
*****
 23 25 0 0 0
SMALL
GASTEIGER

@<TRIPOS>ATOM
      1 C          -7.2130  -15.7301   23.2134 C.3     1  UNL1        0.0523
      2 C          -7.9373  -17.0410   23.2970 C.ar    1  UNL1        0.0657
      3 C          -9.2827  -17.2667   23.9205 C.ar    1  UNL1        0.0739
      4 C          -9.6202  -18.7215   23.7806 C.ar    1  UNL1        0.2434
      5 N          -8.4833  -19.3949   23.0707 N.ar    1  UNL1       -0.1276
      6 N          -7.4432  -18.3564   22.7718 N.ar    1  UNL1       -0.2300
      7 C          -6.1381  -18.5917   22.0708 C.ar    1  UNL1        0.0931
      8 C          -4.8456  -18.3900   22.8046 C.ar    1  UNL1        0.0209
      9 C          -3.5405  -18.6254   22.1036 C.ar    1  UNL1        0.0130
     10 C          -3.5281  -19.0624   20.6687 C.ar    1  UNL1        0.0586
     11 CL         -2.2230  -19.2978   19.9677 Cl      1  UNL1       -0.0822
     12 C          -4.8206  -19.2641   19.9349 C.ar    1  UNL1        0.0243
     13 C          -6.1257  -19.0288   20.6359 C.ar    1  UNL1        0.0761
     14 CL         -7.4183  -19.2305   19.9020 Cl      1  UNL1       -0.0806
     15 O         -10.8744  -19.3862   24.2655 O.3     1  UNL1       -0.4577
     16 C         -12.1342  -18.5872   24.4226 C.3     1  UNL1        0.2244
     17 C         -12.8959  -18.1416   23.2097 C.3     1  UNL1        0.1202
     18 N         -12.1577  -17.7066   21.9784 N.3     1  UNL1       -0.2653
     19 C         -11.6747  -18.7291   20.9930 C.3     1  UNL1        0.1047
     20 C         -10.9366  -18.2941   19.7618 C.3     1  UNL1        0.1595
     21 O         -10.6815  -16.8365   19.5160 O.3     1  UNL1       -0.3508
     22 C         -11.1645  -15.8140   20.5014 C.3     1  UNL1        0.1595
     23 C         -11.9026  -16.2490   21.7326 C.3     1  UNL1        0.1047
@<TRIPOS>BOND
     1     1     2    1
     2     2     3   ar
     3     3     4   ar
     4     4    15    1
     5    15    16    1
     6    16    17    1
     7    17    18    1
     8    18    19    1
     9    19    20    1
    10    20    21    1
    11    21    22    1
    12    22    23    1
    13     4     5   ar
    14     5     6   ar
    15     6     7    1
    16     7     8   ar
    17     8     9   ar
    18     9    10   ar
    19    10    11    1
    20    10    12   ar
    21    12    13   ar
    22    13    14    1
    23     6     2   ar
    24    13     7   ar
    25    23    18    1
@<TRIPOS>MOLECULE
*****
 23 25 0 0 0
SMALL
GASTEIGER

@<TRIPOS>ATOM
      1 C         -10.9035  -17.3676   21.6079 C.3     1  UNL1        0.0523
      2 C          -9.5836  -18.0710   21.4924 C.ar    1  UNL1        0.0657
      3 C          -9.1521  -18.9556   20.3604 C.ar    1  UNL1        0.0739
      4 C          -7.7654  -19.4446   20.6570 C.ar    1  UNL1        0.2434
      5 N          -7.3399  -18.8622   21.9722 N.ar    1  UNL1       -0.1276
      6 N          -8.4636  -18.0133   22.4886 N.ar    1  UNL1       -0.2300
      7 C          -8.4668  -17.2421   23.7751 C.ar    1  UNL1        0.0931
      8 C          -7.7745  -15.9139   23.8550 C.ar    1  UNL1        0.0209
      9 C          -7.7777  -15.1427   25.1416 C.ar    1  UNL1        0.0130
     10 C          -8.4732  -15.6998   26.3482 C.ar    1  UNL1        0.0586
     11 CL         -8.4763  -14.9286   27.6348 Cl      1  UNL1       -0.0822
     12 C          -9.1655  -17.0281   26.2683 C.ar    1  UNL1        0.0243
     13 C          -9.1623  -17.7992   24.9818 C.ar    1  UNL1        0.0761
     14 CL         -9.8546  -19.1276   24.9018 Cl      1  UNL1       -0.0806
     15 O          -6.9478  -20.3559   19.7904 O.3     1  UNL1       -0.4577
     16 C          -5.7741  -21.0884   20.3700 C.3     1  UNL1        0.2244
     17 C          -4.3825  -20.7428   19.9297 C.3     1  UNL1        0.1202
     18 N          -3.7404  -19.4719   20.4016 N.3     1  UNL1       -0.2653
     19 C          -3.0152  -18.5914   19.4276 C.3     1  UNL1        0.1047
     20 C          -2.3732  -17.3205   19.8995 C.3     1  UNL1        0.1595
     21 O          -2.4564  -16.9302   21.3455 O.3     1  UNL1       -0.3508
     22 C          -3.1816  -17.8107   22.3195 C.3     1  UNL1        0.1595
     23 C          -3.8236  -19.0815   21.8476 C.3     1  UNL1        0.1047
@<TRIPOS>BOND
     1     1     2    1
     2     2     3   ar
     3     3     4   ar
     4     4    15    1
     5    15    16    1
     6    16    17    1
     7    17    18    1
     8    18    19    1
     9    19    20    1
    10    20    21    1
    11    21    22    1
    12    22    23    1
    13     4     5   ar
    14     5     6   ar
    15     6     7    1
    16     7     8   ar
    17     8     9   ar
    18     9    10   ar
    19    10    11    1
    20    10    12   ar
    21    12    13   ar
    22    13    14    1
    23     6     2   ar
    24    13     7   ar
    25    23    18    1
@<TRIPOS>MOLECULE
*****
 23 25 0 0 0
SMALL
GASTEIGER

@<TRIPOS>ATOM
      1 C         -10.2353  -19.3106   23.4831 C.3     1  UNL1        0.0523
      2 C          -9.2266  -18.2522   23.1478 C.ar    1  UNL1        0.0657
      3 C          -8.7479  -17.1677   24.0669 C.ar    1  UNL1        0.0739
      4 C          -7.7450  -16.3377   23.3218 C.ar    1  UNL1        0.2434
      5 N          -7.6040  -16.9091   21.9420 N.ar    1  UNL1       -0.1276
      6 N          -8.5196  -18.0923   21.8345 N.ar    1  UNL1       -0.2300
      7 C          -8.6972  -18.9628   20.6259 C.ar    1  UNL1        0.0931
      8 C          -7.5832  -19.8627   20.1796 C.ar    1  UNL1        0.0209
      9 C          -7.7607  -20.7332   18.9711 C.ar    1  UNL1        0.0130
     10 C          -9.0523  -20.7038   18.2088 C.ar    1  UNL1        0.0586
     11 CL         -9.2298  -21.5743   17.0002 Cl      1  UNL1       -0.0822
     12 C         -10.1663  -19.8039   18.6550 C.ar    1  UNL1        0.0243
     13 C          -9.9887  -18.9334   19.8636 C.ar    1  UNL1        0.0761
     14 CL        -11.1028  -18.0335   20.3099 Cl      1  UNL1       -0.0806
     15 O          -7.0120  -15.1456   23.8615 O.3     1  UNL1       -0.4577
     16 C          -5.5121  -15.1230   23.8590 C.3     1  UNL1        0.2244
     17 C          -4.7426  -16.3761   24.1548 C.3     1  UNL1        0.1202
     18 N          -4.0249  -17.0939   23.0504 N.3     1  UNL1       -0.2653
     19 C          -4.4985  -18.4445   22.6017 C.3     1  UNL1        0.1047
     20 C          -3.7808  -19.1623   21.4974 C.3     1  UNL1        0.1595
     21 O          -2.5893  -18.5293   20.8417 O.3     1  UNL1       -0.3508
     22 C          -2.1156  -17.1787   21.2904 C.3     1  UNL1        0.1595
     23 C          -2.8334  -16.4610   22.3948 C.3     1  UNL1        0.1047
@<TRIPOS>BOND
     1     1     2    1
     2     2     3   ar
     3     3     4   ar
     4     4    15    1
     5    15    16    1
     6    16    17    1
     7    17    18    1
     8    18    19    1
     9    19    20    1
    10    20    21    1
    11    21    22    1
    12    22    23    1
    13     4     5   ar
    14     5     6   ar
    15     6     7    1
    16     7     8   ar
    17     8     9   ar
    18     9    10   ar
    19    10    11    1
    20    10    12   ar
    21    12    13   ar
    22    13    14    1
    23     6     2   ar
    24    13     7   ar
    25    23    18    1
@<TRIPOS>MOLECULE
*****
 23 25 0 0 0
SMALL
GASTEIGER

@<TRIPOS>ATOM
      1 C         -11.1903  -17.7054   22.0211 C.3     1  UNL1        0.0523
      2 C          -9.8123  -18.2517   21.7912 C.ar    1  UNL1        0.0657
      3 C          -9.3820  -19.0986   20.6303 C.ar    1  UNL1        0.0739
      4 C          -7.9265  -19.4173   20.8034 C.ar    1  UNL1        0.2434
      5 N          -7.4573  -18.7674   22.0713 N.ar    1  UNL1       -0.1276
      6 N          -8.6228  -18.0470   22.6818 N.ar    1  UNL1       -0.2300
      7 C          -8.6023  -17.2601   23.9586 C.ar    1  UNL1        0.0931
      8 C          -9.0963  -17.8822   25.2309 C.ar    1  UNL1        0.0209
      9 C          -9.0759  -17.0952   26.5078 C.ar    1  UNL1        0.0130
     10 C          -8.5614  -15.6862   26.5122 C.ar    1  UNL1        0.0586
     11 CL         -8.5409  -14.8993   27.7891 Cl      1  UNL1       -0.0822
     12 C          -8.0673  -15.0641   25.2399 C.ar    1  UNL1        0.0243
     13 C          -8.0878  -15.8511   23.9630 C.ar    1  UNL1        0.0761
     14 CL         -7.5937  -15.2290   22.6906 Cl      1  UNL1       -0.0806
     15 O          -7.0876  -20.2413   19.8722 O.3     1  UNL1       -0.4577
     16 C          -5.8779  -20.9610   20.3907 C.3     1  UNL1        0.2244
     17 C          -4.5073  -20.5320   19.9582 C.3     1  UNL1        0.1202
     18 N          -3.8101  -19.4141   20.6755 N.3     1  UNL1       -0.2653
     19 C          -4.0068  -19.2320   22.1513 C.3     1  UNL1        0.1047
     20 C          -3.3097  -18.1142   22.8686 C.3     1  UNL1        0.1595
     21 O          -2.4158  -17.1785   22.1100 O.3     1  UNL1       -0.3508
     22 C          -2.2191  -17.3606   20.6341 C.3     1  UNL1        0.1595
     23 C          -2.9162  -18.4784   19.9169 C.3     1  UNL1        0.1047
@<TRIPOS>BOND
     1     1     2    1
     2     2     3   ar
     3     3     4   ar
     4     4    15    1
     5    15    16    1
     6    16    17    1
     7    17    18    1
     8    18    19    1
     9    19    20    1
    10    20    21    1
    11    21    22    1
    12    22    23    1
    13     4     5   ar
    14     5     6   ar
    15     6     7    1
    16     7     8   ar
    17     8     9   ar
    18     9    10   ar
    19    10    11    1
    20    10    12   ar
    21    12    13   ar
    22    13    14    1
    23     6     2   ar
    24    13     7   ar
    25    23    18    1
