@<TRIPOS>MOLECULE
*****
 26 27 0 0 0
SMALL
GASTEIGER

@<TRIPOS>ATOM
      1 C          -6.9939  -18.1004   21.9101 C.ar    1  UNL1        0.1329
      2 N          -5.8183  -18.8662   21.3795 N.ar    1  UNL1       -0.1993
      3 C          -4.4481  -18.6181   21.9370 C.ar    1  UNL1        0.2148
      4 N          -3.2725  -19.3839   21.4063 N.pl3   1  UNL1       -0.3274
      5 N          -4.2534  -17.6042   23.0251 N.ar    1  UNL1       -0.2139
      6 C          -5.4290  -16.8384   23.5558 C.ar    1  UNL1        0.0870
      7 C          -5.2343  -15.8245   24.6440 C.ar    1  UNL1        0.0193
      8 C          -6.4099  -15.0588   25.1746 C.ar    1  UNL1        0.0017
      9 C          -7.7802  -15.3069   24.6170 C.ar    1  UNL1        0.0047
     10 C          -7.9748  -16.3208   23.5289 C.ar    1  UNL1        0.0575
     11 C          -6.7993  -17.0865   22.9983 C.ar    1  UNL1        0.0535
     12 H          -3.4003  -20.0494   20.6921 H       1  UNL1        0.1452
     13 H          -2.3731  -19.2211   21.7722 H       1  UNL1        0.1452
     14 C          -9.3451  -16.5689   22.9713 C.2     1  UNL1        0.2459
     15 O         -10.1735  -17.7044   23.4949 O.2     1  UNL1       -0.2701
     16 N          -9.8869  -15.6814   21.8902 N.am    1  UNL1       -0.3025
     17 H          -9.3432  -14.9361   21.5466 H       1  UNL1        0.1497
     18 C         -11.2572  -15.9296   21.3327 C.3     1  UNL1        0.0720
     19 C         -11.4523  -16.0562   19.8508 C.3     1  UNL1        0.0213
     20 C         -12.4323  -16.0510   22.2570 C.3     1  UNL1        0.0213
     21 N          -8.3642  -18.3486   21.3525 N.pl3   1  UNL1       -0.3180
     22 H          -9.1467  -17.9070   21.7549 H       1  UNL1        0.1482
     23 C          -8.5422  -19.2695   20.1820 C.3     1  UNL1        0.0882
     24 C          -9.9210  -19.6407   19.7226 C.3     1  UNL1        0.0212
     25 C         -11.1198  -20.4309   21.8879 C.3     1  UNL1        0.0001
     26 C         -11.0777  -19.5515   20.6735 C.3     1  UNL1        0.0017
@<TRIPOS>BOND
     1    25    26    1
     2    26    24    1
     3    24    23    1
     4    23    21    1
     5    21     1    1
     6     1     2   ar
     7     2     3   ar
     8     3     4    1
     9     3     5   ar
    10     5     6   ar
    11     6     7   ar
    12     7     8   ar
    13     8     9   ar
    14     9    10   ar
    15    10    14    1
    16    14    15    2
    17    14    16   am
    18    16    18    1
    19    18    19    1
    20    18    20    1
    21    10    11   ar
    22    11     1   ar
    23    11     6   ar
    24    21    22    1
    25     4    12    1
    26     4    13    1
    27    16    17    1
@<TRIPOS>MOLECULE
*****
 26 27 0 0 0
SMALL
GASTEIGER

@<TRIPOS>ATOM
      1 C          -7.8714  -17.3656   22.3587 C.ar    1  UNL1        0.1329
      2 N          -8.9492  -16.4475   22.8540 N.ar    1  UNL1       -0.1993
      3 C         -10.3135  -16.4883   22.2319 C.ar    1  UNL1        0.2148
      4 N         -11.3914  -15.5701   22.7272 N.pl3   1  UNL1       -0.3274
      5 N         -10.6000  -17.4471   21.1146 N.ar    1  UNL1       -0.2139
      6 C          -9.5221  -18.3653   20.6192 C.ar    1  UNL1        0.0870
      7 C          -9.8086  -19.3241   19.5019 C.ar    1  UNL1        0.0193
      8 C          -8.7307  -20.2422   19.0066 C.ar    1  UNL1        0.0017
      9 C          -7.3664  -20.2015   19.6287 C.ar    1  UNL1        0.0047
     10 C          -7.0799  -19.2426   20.7461 C.ar    1  UNL1        0.0575
     11 C          -8.1578  -18.3245   21.2413 C.ar    1  UNL1        0.0535
     12 H         -11.2034  -14.9408   23.4606 H       1  UNL1        0.1452
     13 H         -12.2868  -15.5969   22.3189 H       1  UNL1        0.1452
     14 C          -5.7156  -19.2019   21.3682 C.2     1  UNL1        0.2459
     15 O          -5.4635  -19.9036   22.6697 O.2     1  UNL1       -0.2701
     16 N          -4.6034  -18.4594   20.6888 N.am    1  UNL1       -0.3025
     17 H          -4.7689  -17.9988   19.8345 H       1  UNL1        0.1497
     18 C          -3.2391  -18.4186   21.3109 C.3     1  UNL1        0.0720
     19 C          -2.8349  -17.2470   22.1559 C.3     1  UNL1        0.0213
     20 C          -2.2791  -19.5494   21.0880 C.3     1  UNL1        0.0213
     21 N          -6.5071  -17.3249   22.9808 N.pl3   1  UNL1       -0.3180
     22 H          -5.9404  -18.1299   22.9778 H       1  UNL1        0.1482
     23 C          -6.0061  -16.0575   23.6075 C.3     1  UNL1        0.0882
     24 C          -5.1774  -16.1150   24.8565 C.3     1  UNL1        0.0212
     25 C          -6.5803  -15.5551   26.9703 C.3     1  UNL1        0.0001
     26 C          -5.4878  -15.2017   26.0052 C.3     1  UNL1        0.0017
@<TRIPOS>BOND
     1    25    26    1
     2    26    24    1
     3    24    23    1
     4    23    21    1
     5    21     1    1
     6     1     2   ar
     7     2     3   ar
     8     3     4    1
     9     3     5   ar
    10     5     6   ar
    11     6     7   ar
    12     7     8   ar
    13     8     9   ar
    14     9    10   ar
    15    10    14    1
    16    14    15    2
    17    14    16   am
    18    16    18    1
    19    18    19    1
    20    18    20    1
    21    10    11   ar
    22    11     1   ar
    23    11     6   ar
    24    21    22    1
    25     4    12    1
    26     4    13    1
    27    16    17    1
@<TRIPOS>MOLECULE
*****
 26 27 0 0 0
SMALL
GASTEIGER

@<TRIPOS>ATOM
      1 C          -6.2729  -18.9303   21.8093 C.ar    1  UNL1        0.1329
      2 N          -5.0060  -19.6624   21.4788 N.ar    1  UNL1       -0.1993
      3 C          -3.7023  -19.2073   22.0645 C.ar    1  UNL1        0.2148
      4 N          -2.4354  -19.9394   21.7340 N.pl3   1  UNL1       -0.3274
      5 N          -3.6653  -18.0202   22.9807 N.ar    1  UNL1       -0.2139
      6 C          -4.9322  -17.2881   23.3112 C.ar    1  UNL1        0.0870
      7 C          -4.8952  -16.1011   24.2274 C.ar    1  UNL1        0.0193
      8 C          -6.1620  -15.3690   24.5579 C.ar    1  UNL1        0.0017
      9 C          -7.4658  -15.8241   23.9722 C.ar    1  UNL1        0.0047
     10 C          -7.5028  -17.0112   23.0560 C.ar    1  UNL1        0.0575
     11 C          -6.2360  -17.7432   22.7255 C.ar    1  UNL1        0.0535
     12 H          -2.4596  -20.7185   21.1326 H       1  UNL1        0.1452
     13 H          -1.5796  -19.6407   22.1184 H       1  UNL1        0.1452
     14 C          -8.8066  -17.4662   22.4703 C.2     1  UNL1        0.2459
     15 O          -9.1967  -17.0393   21.0863 O.2     1  UNL1       -0.2701
     16 N          -9.7202  -18.3482   23.2685 N.am    1  UNL1       -0.3025
     17 H          -9.4642  -18.6284   24.1769 H       1  UNL1        0.1497
     18 C         -11.0240  -18.8033   22.6828 C.3     1  UNL1        0.0720
     19 C         -11.0706  -20.0273   21.8169 C.3     1  UNL1        0.0213
     20 C         -12.2811  -18.0345   22.9630 C.3     1  UNL1        0.0213
     21 N          -7.5767  -19.3854   21.2236 N.pl3   1  UNL1       -0.3180
     22 H          -8.4107  -19.2767   21.7351 H       1  UNL1        0.1482
     23 C          -7.6096  -20.0061   19.8585 C.3     1  UNL1        0.0882
     24 C          -8.7673  -19.7417   18.9420 C.3     1  UNL1        0.0212
     25 C          -8.4946  -22.1103   17.9099 C.3     1  UNL1        0.0001
     26 C          -9.2361  -20.8095   17.9985 C.3     1  UNL1        0.0017
@<TRIPOS>BOND
     1    25    26    1
     2    26    24    1
     3    24    23    1
     4    23    21    1
     5    21     1    1
     6     1     2   ar
     7     2     3   ar
     8     3     4    1
     9     3     5   ar
    10     5     6   ar
    11     6     7   ar
    12     7     8   ar
    13     8     9   ar
    14     9    10   ar
    15    10    14    1
    16    14    15    2
    17    14    16   am
    18    16    18    1
    19    18    19    1
    20    18    20    1
    21    10    11   ar
    22    11     1   ar
    23    11     6   ar
    24    21    22    1
    25     4    12    1
    26     4    13    1
    27    16    17    1
@<TRIPOS>MOLECULE
*****
 26 27 0 0 0
SMALL
GASTEIGER

@<TRIPOS>ATOM
      1 C          -8.6935  -18.5688   21.6674 C.ar    1  UNL1        0.1329
      2 N          -8.3617  -19.4610   20.5082 N.ar    1  UNL1       -0.1993
      3 C          -9.3368  -19.6177   19.3792 C.ar    1  UNL1        0.2148
      4 N          -9.0050  -20.5099   18.2199 N.pl3   1  UNL1       -0.3274
      5 N         -10.6437  -18.8821   19.4095 N.ar    1  UNL1       -0.2139
      6 C         -10.9756  -17.9898   20.5687 C.ar    1  UNL1        0.0870
      7 C         -12.2824  -17.2543   20.5990 C.ar    1  UNL1        0.0193
      8 C         -12.6142  -16.3621   21.7582 C.ar    1  UNL1        0.0017
      9 C         -11.6391  -16.2054   22.8872 C.ar    1  UNL1        0.0047
     10 C         -10.3322  -16.9410   22.8569 C.ar    1  UNL1        0.0575
     11 C         -10.0004  -17.8332   21.6977 C.ar    1  UNL1        0.0535
     12 H          -8.1473  -20.9927   18.2001 H       1  UNL1        0.1452
     13 H          -9.6450  -20.6128   17.4790 H       1  UNL1        0.1452
     14 C          -9.3570  -16.7843   23.9859 C.2     1  UNL1        0.2459
     15 O          -9.2683  -17.8360   25.0516 O.2     1  UNL1       -0.2701
     16 N          -8.4707  -15.5759   24.0491 N.am    1  UNL1       -0.3025
     17 H          -8.5289  -14.8855   23.3496 H       1  UNL1        0.1497
     18 C          -7.4956  -15.4192   25.1781 C.3     1  UNL1        0.0720
     19 C          -6.0248  -15.3410   24.8934 C.3     1  UNL1        0.0213
     20 C          -7.9911  -15.3407   26.5916 C.3     1  UNL1        0.0213
     21 N          -7.7183  -18.4121   22.7964 N.pl3   1  UNL1       -0.3180
     22 H          -8.0267  -18.4925   23.7279 H       1  UNL1        0.1482
     23 C          -6.2734  -18.1330   22.5061 C.3     1  UNL1        0.0882
     24 C          -5.3183  -19.2695   22.2920 C.3     1  UNL1        0.0212
     25 C          -2.8851  -19.7119   21.4957 C.3     1  UNL1        0.0001
     26 C          -3.8422  -19.0467   22.4399 C.3     1  UNL1        0.0017
@<TRIPOS>BOND
     1    25    26    1
     2    26    24    1
     3    24    23    1
     4    23    21    1
     5    21     1    1
     6     1     2   ar
     7     2     3   ar
     8     3     4    1
     9     3     5   ar
    10     5     6   ar
    11     6     7   ar
    12     7     8   ar
    13     8     9   ar
    14     9    10   ar
    15    10    14    1
    16    14    15    2
    17    14    16   am
    18    16    18    1
    19    18    19    1
    20    18    20    1
    21    10    11   ar
    22    11     1   ar
    23    11     6   ar
    24    21    22    1
    25     4    12    1
    26     4    13    1
    27    16    17    1
@<TRIPOS>MOLECULE
*****
 26 27 0 0 0
SMALL
GASTEIGER

@<TRIPOS>ATOM
      1 C          -7.7376  -17.7767   22.1854 C.ar    1  UNL1        0.1329
      2 N          -6.3265  -17.8058   22.6930 N.ar    1  UNL1       -0.1993
      3 C          -5.3194  -18.7178   22.0574 C.ar    1  UNL1        0.2148
      4 N          -3.9082  -18.7468   22.5651 N.pl3   1  UNL1       -0.3274
      5 N          -5.7234  -19.6007   20.9142 N.ar    1  UNL1       -0.2139
      6 C          -7.1347  -19.5717   20.4065 C.ar    1  UNL1        0.0870
      7 C          -7.5387  -20.4546   19.2632 C.ar    1  UNL1        0.0193
      8 C          -8.9499  -20.4255   18.7555 C.ar    1  UNL1        0.0017
      9 C          -9.9570  -19.5135   19.3912 C.ar    1  UNL1        0.0047
     10 C          -9.5529  -18.6306   20.5344 C.ar    1  UNL1        0.0575
     11 C          -8.1417  -18.6597   21.0421 C.ar    1  UNL1        0.0535
     12 H          -3.6429  -18.1673   23.3155 H       1  UNL1        0.1452
     13 H          -3.2472  -19.3454   22.1480 H       1  UNL1        0.1452
     14 C         -10.5600  -17.7186   21.1701 C.2     1  UNL1        0.2459
     15 O         -10.6234  -16.2749   20.7680 O.2     1  UNL1       -0.2701
     16 N         -11.5036  -18.2503   22.2077 N.am    1  UNL1       -0.3025
     17 H         -11.4620  -19.1978   22.4717 H       1  UNL1        0.1497
     18 C         -12.5107  -17.3383   22.8434 C.3     1  UNL1        0.0720
     19 C         -12.3934  -15.8531   22.6681 C.3     1  UNL1        0.0213
     20 C         -13.6350  -17.9113   23.6542 C.3     1  UNL1        0.0213
     21 N          -8.7447  -16.8647   22.8210 N.pl3   1  UNL1       -0.3180
     22 H          -9.3170  -16.2947   22.2581 H       1  UNL1        0.1482
     23 C          -8.8799  -16.8212   24.3143 C.3     1  UNL1        0.0882
     24 C          -8.4771  -15.5885   25.0682 C.3     1  UNL1        0.0212
     25 C          -7.0996  -15.6002   27.2710 C.3     1  UNL1        0.0001
     26 C          -7.1540  -15.5394   25.7732 C.3     1  UNL1        0.0017
@<TRIPOS>BOND
     1    25    26    1
     2    26    24    1
     3    24    23    1
     4    23    21    1
     5    21     1    1
     6     1     2   ar
     7     2     3   ar
     8     3     4    1
     9     3     5   ar
    10     5     6   ar
    11     6     7   ar
    12     7     8   ar
    13     8     9   ar
    14     9    10   ar
    15    10    14    1
    16    14    15    2
    17    14    16   am
    18    16    18    1
    19    18    19    1
    20    18    20    1
    21    10    11   ar
    22    11     1   ar
    23    11     6   ar
    24    21    22    1
    25     4    12    1
    26     4    13    1
    27    16    17    1
@<TRIPOS>MOLECULE
*****
 26 27 0 0 0
SMALL
GASTEIGER

@<TRIPOS>ATOM
      1 C          -7.3886  -17.5705   22.0714 C.ar    1  UNL1        0.1329
      2 N          -8.8337  -17.2470   21.8328 N.ar    1  UNL1       -0.1993
      3 C          -9.5440  -16.2791   22.7321 C.ar    1  UNL1        0.2148
      4 N         -10.9892  -15.9556   22.4934 N.pl3   1  UNL1       -0.3274
      5 N          -8.8092  -15.6348   23.8699 N.ar    1  UNL1       -0.2139
      6 C          -7.3641  -15.9582   24.1086 C.ar    1  UNL1        0.0870
      7 C          -6.6293  -15.3139   25.2465 C.ar    1  UNL1        0.0193
      8 C          -5.1842  -15.6374   25.4851 C.ar    1  UNL1        0.0017
      9 C          -4.4739  -16.6052   24.5858 C.ar    1  UNL1        0.0047
     10 C          -5.2086  -17.2496   23.4479 C.ar    1  UNL1        0.0575
     11 C          -6.6537  -16.9261   23.2093 C.ar    1  UNL1        0.0535
     12 H         -11.4715  -16.3786   21.7466 H       1  UNL1        0.1452
     13 H         -11.4554  -15.3204   23.0836 H       1  UNL1        0.1452
     14 C          -4.4983  -18.2174   22.5486 C.2     1  UNL1        0.2459
     15 O          -4.6619  -19.6938   22.7573 O.2     1  UNL1       -0.2701
     16 N          -3.6244  -17.7089   21.4406 N.am    1  UNL1       -0.3025
     17 H          -3.5171  -16.7399   21.3036 H       1  UNL1        0.1497
     18 C          -2.9141  -18.6768   20.5413 C.3     1  UNL1        0.0720
     19 C          -1.4159  -18.7493   20.5518 C.3     1  UNL1        0.0213
     20 C          -3.7020  -19.5720   19.6315 C.3     1  UNL1        0.0213
     21 N          -6.6783  -18.5383   21.1721 N.pl3   1  UNL1       -0.3180
     22 H          -5.7221  -18.4145   20.9730 H       1  UNL1        0.1482
     23 C          -7.4248  -19.6947   20.5760 C.3     1  UNL1        0.0882
     24 C          -8.0733  -19.5555   19.2306 C.3     1  UNL1        0.0212
     25 C         -10.5149  -19.6858   20.1091 C.3     1  UNL1        0.0001
     26 C          -9.5020  -19.9709   19.0401 C.3     1  UNL1        0.0017
@<TRIPOS>BOND
     1    25    26    1
     2    26    24    1
     3    24    23    1
     4    23    21    1
     5    21     1    1
     6     1     2   ar
     7     2     3   ar
     8     3     4    1
     9     3     5   ar
    10     5     6   ar
    11     6     7   ar
    12     7     8   ar
    13     8     9   ar
    14     9    10   ar
    15    10    14    1
    16    14    15    2
    17    14    16   am
    18    16    18    1
    19    18    19    1
    20    18    20    1
    21    10    11   ar
    22    11     1   ar
    23    11     6   ar
    24    21    22    1
    25     4    12    1
    26     4    13    1
    27    16    17    1
@<TRIPOS>MOLECULE
*****
 26 27 0 0 0
SMALL
GASTEIGER

@<TRIPOS>ATOM
      1 C          -7.4115  -17.1163   23.4159 C.ar    1  UNL1        0.1329
      2 N          -7.3657  -16.0318   24.4511 N.ar    1  UNL1       -0.1993
      3 C          -6.0469  -15.5744   25.0002 C.ar    1  UNL1        0.2148
      4 N          -6.0011  -14.4898   26.0355 N.pl3   1  UNL1       -0.3274
      5 N          -4.7739  -16.2015   24.5141 N.ar    1  UNL1       -0.2139
      6 C          -4.8197  -17.2860   23.4788 C.ar    1  UNL1        0.0870
      7 C          -3.5468  -17.9131   22.9928 C.ar    1  UNL1        0.0193
      8 C          -3.5926  -18.9975   21.9575 C.ar    1  UNL1        0.0017
      9 C          -4.9114  -19.4550   21.4084 C.ar    1  UNL1        0.0047
     10 C          -6.1843  -18.8279   21.8945 C.ar    1  UNL1        0.0575
     11 C          -6.1385  -17.7434   22.9297 C.ar    1  UNL1        0.0535
     12 H          -6.8366  -14.0783   26.3546 H       1  UNL1        0.1452
     13 H          -5.1355  -14.1896   26.3959 H       1  UNL1        0.1452
     14 C          -7.5031  -19.2853   21.3453 C.2     1  UNL1        0.2459
     15 O          -8.3945  -20.1653   22.1705 O.2     1  UNL1       -0.2701
     16 N          -7.9305  -18.8627   19.9711 N.am    1  UNL1       -0.3025
     17 H          -7.3455  -18.2851   19.4295 H       1  UNL1        0.1497
     18 C          -9.2493  -19.3201   19.4219 C.3     1  UNL1        0.0720
     19 C         -10.5087  -18.5952   19.7940 C.3     1  UNL1        0.0213
     20 C          -9.3087  -20.5025   18.5008 C.3     1  UNL1        0.0213
     21 N          -8.7303  -17.5737   22.8667 N.pl3   1  UNL1       -0.3180
     22 H          -8.7716  -18.0109   21.9856 H       1  UNL1        0.1482
     23 C          -9.9861  -17.3651   23.6601 C.3     1  UNL1        0.0882
     24 C         -11.1870  -18.2266   23.4038 C.3     1  UNL1        0.0212
     25 C         -12.4545  -16.1876   22.4108 C.3     1  UNL1        0.0001
     26 C         -12.4494  -17.6146   22.8729 C.3     1  UNL1        0.0017
@<TRIPOS>BOND
     1    25    26    1
     2    26    24    1
     3    24    23    1
     4    23    21    1
     5    21     1    1
     6     1     2   ar
     7     2     3   ar
     8     3     4    1
     9     3     5   ar
    10     5     6   ar
    11     6     7   ar
    12     7     8   ar
    13     8     9   ar
    14     9    10   ar
    15    10    14    1
    16    14    15    2
    17    14    16   am
    18    16    18    1
    19    18    19    1
    20    18    20    1
    21    10    11   ar
    22    11     1   ar
    23    11     6   ar
    24    21    22    1
    25     4    12    1
    26     4    13    1
    27    16    17    1
@<TRIPOS>MOLECULE
*****
 26 27 0 0 0
SMALL
GASTEIGER

@<TRIPOS>ATOM
      1 C          -5.7059  -17.8223   22.6038 C.ar    1  UNL1        0.1329
      2 N          -4.3544  -17.3862   23.0869 N.ar    1  UNL1       -0.1993
      3 C          -3.1211  -18.0840   22.5950 C.ar    1  UNL1        0.2148
      4 N          -1.7695  -17.6479   23.0781 N.pl3   1  UNL1       -0.3274
      5 N          -3.2392  -19.2178   21.6200 N.ar    1  UNL1       -0.2139
      6 C          -4.5907  -19.6538   21.1369 C.ar    1  UNL1        0.0870
      7 C          -4.7088  -20.7876   20.1620 C.ar    1  UNL1        0.0193
      8 C          -6.0602  -21.2236   19.6789 C.ar    1  UNL1        0.0017
      9 C          -7.2936  -20.5259   20.1708 C.ar    1  UNL1        0.0047
     10 C          -7.1755  -19.3921   21.1458 C.ar    1  UNL1        0.0575
     11 C          -5.8240  -18.9561   21.6288 C.ar    1  UNL1        0.0535
     12 H          -1.6920  -16.9038   23.7180 H       1  UNL1        0.1452
     13 H          -0.9600  -18.1059   22.7553 H       1  UNL1        0.1452
     14 C          -8.4089  -18.6943   21.6377 C.2     1  UNL1        0.2459
     15 O          -8.8091  -17.3742   21.0486 O.2     1  UNL1       -0.2701
     16 N          -9.2420  -19.3167   22.7186 N.am    1  UNL1       -0.3025
     17 H          -8.9793  -20.1831   23.1053 H       1  UNL1        0.1497
     18 C         -10.4753  -18.6189   23.2105 C.3     1  UNL1        0.0720
     19 C         -11.7405  -18.6761   22.4065 C.3     1  UNL1        0.0213
     20 C         -10.4436  -17.8641   24.5063 C.3     1  UNL1        0.0213
     21 N          -6.9393  -17.1245   23.0957 N.pl3   1  UNL1       -0.3180
     22 H          -7.8201  -17.5527   22.9955 H       1  UNL1        0.1482
     23 C          -6.8306  -15.7744   23.7402 C.3     1  UNL1        0.0882
     24 C          -7.7717  -15.3923   24.8440 C.3     1  UNL1        0.0212
     25 C          -8.2356  -16.2767   27.2425 C.3     1  UNL1        0.0001
     26 C          -7.3510  -15.5470   26.2755 C.3     1  UNL1        0.0017
@<TRIPOS>BOND
     1    25    26    1
     2    26    24    1
     3    24    23    1
     4    23    21    1
     5    21     1    1
     6     1     2   ar
     7     2     3   ar
     8     3     4    1
     9     3     5   ar
    10     5     6   ar
    11     6     7   ar
    12     7     8   ar
    13     8     9   ar
    14     9    10   ar
    15    10    14    1
    16    14    15    2
    17    14    16   am
    18    16    18    1
    19    18    19    1
    20    18    20    1
    21    10    11   ar
    22    11     1   ar
    23    11     6   ar
    24    21    22    1
    25     4    12    1
    26     4    13    1
    27    16    17    1
@<TRIPOS>MOLECULE
*****
 26 27 0 0 0
SMALL
GASTEIGER

@<TRIPOS>ATOM
      1 C          -6.1105  -18.2179   22.2299 C.ar    1  UNL1        0.1329
      2 N          -5.2105  -19.1905   21.5271 N.ar    1  UNL1       -0.1993
      3 C          -5.7713  -20.1145   20.4870 C.ar    1  UNL1        0.2148
      4 N          -4.8712  -21.0872   19.7842 N.pl3   1  UNL1       -0.3274
      5 N          -7.2320  -20.0658   20.1497 N.ar    1  UNL1       -0.2139
      6 C          -8.1321  -19.0932   20.8525 C.ar    1  UNL1        0.0870
      7 C          -9.5928  -19.0445   20.5152 C.ar    1  UNL1        0.0193
      8 C         -10.4928  -18.0719   21.2180 C.ar    1  UNL1        0.0017
      9 C          -9.9320  -17.1479   22.2581 C.ar    1  UNL1        0.0047
     10 C          -8.4713  -17.1966   22.5954 C.ar    1  UNL1        0.0575
     11 C          -7.5713  -18.1692   21.8926 C.ar    1  UNL1        0.0535
     12 H          -3.9125  -21.1191   20.0055 H       1  UNL1        0.1452
     13 H          -5.2393  -21.6936   19.1015 H       1  UNL1        0.1452
     14 C          -7.9105  -16.2726   23.6355 C.2     1  UNL1        0.2459
     15 O          -7.2173  -15.0088   23.2207 O.2     1  UNL1       -0.2701
     16 N          -8.0429  -16.6125   25.0905 N.am    1  UNL1       -0.3025
     17 H          -8.4979  -17.4420   25.3628 H       1  UNL1        0.1497
     18 C          -7.4822  -15.6885   26.1306 C.3     1  UNL1        0.0720
     19 C          -8.3689  -15.1554   27.2167 C.3     1  UNL1        0.0213
     20 C          -6.0348  -15.2976   26.0846 C.3     1  UNL1        0.0213
     21 N          -5.5497  -17.2939   23.2700 N.pl3   1  UNL1       -0.3180
     22 H          -6.1407  -16.6566   23.7323 H       1  UNL1        0.1482
     23 C          -4.0886  -17.3410   23.6057 C.3     1  UNL1        0.0882
     24 C          -3.0930  -16.6519   22.7202 C.3     1  UNL1        0.0212
     25 C          -1.9098  -17.0844   20.4480 C.3     1  UNL1        0.0001
     26 C          -2.1502  -17.4613   21.8798 C.3     1  UNL1        0.0017
@<TRIPOS>BOND
     1    25    26    1
     2    26    24    1
     3    24    23    1
     4    23    21    1
     5    21     1    1
     6     1     2   ar
     7     2     3   ar
     8     3     4    1
     9     3     5   ar
    10     5     6   ar
    11     6     7   ar
    12     7     8   ar
    13     8     9   ar
    14     9    10   ar
    15    10    14    1
    16    14    15    2
    17    14    16   am
    18    16    18    1
    19    18    19    1
    20    18    20    1
    21    10    11   ar
    22    11     1   ar
    23    11     6   ar
    24    21    22    1
    25     4    12    1
    26     4    13    1
    27    16    17    1
