@<TRIPOS>MOLECULE
*****
 22 24 0 0 0
SMALL
GASTEIGER

@<TRIPOS>ATOM
      1 C          -8.4883  -17.5575   22.1102 C.2     1  UNL1        0.1700
      2 O          -9.5748  -17.3694   21.0934 O.2     1  UNL1       -0.2916
      3 C          -7.2648  -18.3525   21.7623 C.2     1  UNL1        0.0192
      4 C          -7.3753  -19.5389   20.8512 C.2     1  UNL1        0.0301
      5 C          -6.1517  -20.3340   20.5033 C.2     1  UNL1        0.1571
      6 F          -6.2623  -21.5204   19.5921 F       1  UNL1       -0.2026
      7 C          -4.8178  -19.9425   21.0665 C.2     1  UNL1        0.1050
      8 N          -3.4476  -20.5307   20.9032 N.2     1  UNL1       -0.2419
      9 C          -2.4904  -19.7078   21.7134 C.2     1  UNL1        0.0986
     10 C          -3.2689  -18.6110   22.3774 C.2     1  UNL1        0.0183
     11 C          -4.7073  -18.7560   21.9776 C.2     1  UNL1        0.0037
     12 C          -5.9308  -17.9611   22.3255 C.3     1  UNL1        0.0572
     13 C          -8.6252  -16.9506   23.4751 C.3     1  UNL1        0.0710
     14 C          -8.8819  -16.6232   24.9163 C.3     1  UNL1        0.0257
     15 C          -8.4390  -15.2105   25.1567 C.3     1  UNL1        0.0690
     16 N          -7.9086  -14.6647   23.8641 N.3     1  UNL1       -0.2971
     17 C          -8.0237  -15.7401   22.8248 C.3     1  UNL1        0.0758
     18 H          -6.9312  -14.3957   23.9771 H       1  UNL1        0.1233
     19 C          -9.1982  -18.2880   23.8400 C.3     1  UNL1        0.0086
     20 C         -10.5302  -18.3717   24.5246 C.3     1  UNL1        0.0005
     21 C         -12.5725  -17.6566   23.0867 C.3     1  UNL1        0.0000
     22 C         -11.7559  -18.7326   23.7388 C.3     1  UNL1        0.0000
@<TRIPOS>BOND
     1    21    22    1
     2    22    20    1
     3    20    19    1
     4    19    13    1
     5    13     1    1
     6     1     2    2
     7     1     3    1
     8     3     4    2
     9     4     5    1
    10     5     6    1
    11     5     7    2
    12     7     8    1
    13     8     9    2
    14     9    10    1
    15    10    11    2
    16    11    12    1
    17    13    14    1
    18    14    15    1
    19    15    16    1
    20    16    17    1
    21    17    13    1
    22    12     3    1
    23    11     7    1
    24    16    18    1
@<TRIPOS>MOLECULE
*****
 22 24 0 0 0
SMALL
GASTEIGER

@<TRIPOS>ATOM
      1 C          -9.7725  -19.3082   20.1722 C.2     1  UNL1        0.1700
      2 O          -9.9590  -20.0082   18.8589 O.2     1  UNL1       -0.2916
      3 C          -8.3933  -19.1133   20.7291 C.2     1  UNL1        0.0192
      4 C          -8.1649  -18.1318   21.8401 C.2     1  UNL1        0.0301
      5 C          -6.7857  -17.9370   22.3970 C.2     1  UNL1        0.1571
      6 F          -6.5573  -16.9554   23.5081 F       1  UNL1       -0.2026
      7 C          -5.6351  -18.7237   21.8429 C.2     1  UNL1        0.1050
      8 N          -4.1755  -18.7454   22.1877 N.2     1  UNL1       -0.2419
      9 C          -3.5019  -19.7404   21.2898 C.2     1  UNL1        0.0986
     10 C          -4.5452  -20.3337   20.3901 C.2     1  UNL1        0.0183
     11 C          -5.8636  -19.7053   20.7319 C.2     1  UNL1        0.0037
     12 C          -7.2427  -19.9001   20.1750 C.3     1  UNL1        0.0572
     13 C         -10.9651  -18.8029   20.9288 C.3     1  UNL1        0.0710
     14 C         -12.1073  -18.5479   21.8671 C.3     1  UNL1        0.0257
     15 C         -12.8050  -17.2981   21.4192 C.3     1  UNL1        0.0690
     16 N         -12.0942  -16.7805   20.2040 N.3     1  UNL1       -0.2971
     17 C         -10.9570  -17.7104   19.9008 C.3     1  UNL1        0.0758
     18 H         -11.7357  -15.8430   20.3857 H       1  UNL1        0.1233
     19 C         -10.7238  -20.0009   21.7985 C.3     1  UNL1        0.0086
     20 C         -11.1086  -19.9652   23.2479 C.3     1  UNL1        0.0005
     21 C          -9.8406  -18.7409   25.1566 C.3     1  UNL1        0.0000
     22 C         -10.0455  -19.9593   24.3062 C.3     1  UNL1        0.0000
@<TRIPOS>BOND
     1    21    22    1
     2    22    20    1
     3    20    19    1
     4    19    13    1
     5    13     1    1
     6     1     2    2
     7     1     3    1
     8     3     4    2
     9     4     5    1
    10     5     6    1
    11     5     7    2
    12     7     8    1
    13     8     9    2
    14     9    10    1
    15    10    11    2
    16    11    12    1
    17    13    14    1
    18    14    15    1
    19    15    16    1
    20    16    17    1
    21    17    13    1
    22    12     3    1
    23    11     7    1
    24    16    18    1
@<TRIPOS>MOLECULE
*****
 22 24 0 0 0
SMALL
GASTEIGER

@<TRIPOS>ATOM
      1 C          -8.6951  -19.1977   21.5555 C.2     1  UNL1        0.1700
      2 O          -9.4522  -19.5149   20.3001 O.2     1  UNL1       -0.2916
      3 C          -7.1951  -19.2160   21.5517 C.2     1  UNL1        0.0192
      4 C          -6.4585  -20.1211   20.6094 C.2     1  UNL1        0.0301
      5 C          -4.9586  -20.1394   20.6057 C.2     1  UNL1        0.1571
      6 F          -4.2219  -21.0446   19.6633 F       1  UNL1       -0.2026
      7 C          -4.1954  -19.2526   21.5443 C.2     1  UNL1        0.1050
      8 N          -2.7251  -19.0554   21.7664 N.2     1  UNL1       -0.2419
      9 C          -2.5531  -18.0283   22.8460 C.2     1  UNL1        0.0986
     10 C          -3.9171  -17.5908   23.2911 C.2     1  UNL1        0.0183
     11 C          -4.9321  -18.3474   22.4866 C.2     1  UNL1        0.0037
     12 C          -6.4320  -18.3291   22.4903 C.3     1  UNL1        0.0572
     13 C          -9.4378  -18.8622   22.8148 C.3     1  UNL1        0.0710
     14 C         -10.2444  -18.2579   23.9258 C.3     1  UNL1        0.0257
     15 C         -10.2822  -19.2404   25.0585 C.3     1  UNL1        0.0690
     16 N          -9.4991  -20.4519   24.6476 N.3     1  UNL1       -0.2971
     17 C          -8.9772  -20.2182   23.2609 C.3     1  UNL1        0.0758
     18 H         -10.1031  -21.2738   24.6562 H       1  UNL1        0.1233
     19 C          -9.7432  -17.5763   22.1054 C.3     1  UNL1        0.0086
     20 C         -11.1256  -16.9972   22.1642 C.3     1  UNL1        0.0005
     21 C         -11.5219  -16.0617   19.7731 C.3     1  UNL1        0.0000
     22 C         -11.9609  -16.9222   20.9206 C.3     1  UNL1        0.0000
@<TRIPOS>BOND
     1    21    22    1
     2    22    20    1
     3    20    19    1
     4    19    13    1
     5    13     1    1
     6     1     2    2
     7     1     3    1
     8     3     4    2
     9     4     5    1
    10     5     6    1
    11     5     7    2
    12     7     8    1
    13     8     9    2
    14     9    10    1
    15    10    11    2
    16    11    12    1
    17    13    14    1
    18    14    15    1
    19    15    16    1
    20    16    17    1
    21    17    13    1
    22    12     3    1
    23    11     7    1
    24    16    18    1
@<TRIPOS>MOLECULE
*****
 22 24 0 0 0
SMALL
GASTEIGER

@<TRIPOS>ATOM
      1 C          -8.8118  -17.8468   22.8903 C.2     1  UNL1        0.1700
      2 O          -9.0220  -17.7142   24.3695 O.2     1  UNL1       -0.2916
      3 C          -7.5461  -18.4561   22.3643 C.2     1  UNL1        0.0192
      4 C          -7.6096  -19.5513   21.3413 C.2     1  UNL1        0.0301
      5 C          -6.3439  -20.1606   20.8153 C.2     1  UNL1        0.1571
      6 F          -6.4075  -21.2558   19.7923 F       1  UNL1       -0.2026
      7 C          -5.0146  -19.6747   21.3122 C.2     1  UNL1        0.1050
      8 N          -3.6094  -20.0809   20.9801 N.2     1  UNL1       -0.2419
      9 C          -2.6774  -19.2367   21.7978 C.2     1  UNL1        0.0986
     10 C          -3.5066  -18.3088   22.6353 C.2     1  UNL1        0.0183
     11 C          -4.9511  -18.5795   22.3352 C.2     1  UNL1        0.0037
     12 C          -6.2168  -17.9702   22.8612 C.3     1  UNL1        0.0572
     13 C          -9.8673  -17.3700   21.9371 C.3     1  UNL1        0.0710
     14 C         -11.0578  -17.1691   21.0469 C.3     1  UNL1        0.0257
     15 C         -10.9267  -15.8251   20.3939 C.3     1  UNL1        0.0690
     16 N          -9.6552  -15.1955   20.8804 N.3     1  UNL1       -0.2971
     17 C          -9.0004  -16.1502   21.8341 C.3     1  UNL1        0.0758
     18 H          -9.8637  -14.3183   21.3573 H       1  UNL1        0.1233
     19 C         -10.5135  -18.6895   22.2393 C.3     1  UNL1        0.0086
     20 C         -11.9747  -18.7501   22.5729 C.3     1  UNL1        0.0005
     21 C         -13.9057  -18.0572   24.1670 C.3     1  UNL1        0.0000
     22 C         -12.4508  -18.3389   23.9346 C.3     1  UNL1        0.0000
@<TRIPOS>BOND
     1    21    22    1
     2    22    20    1
     3    20    19    1
     4    19    13    1
     5    13     1    1
     6     1     2    2
     7     1     3    1
     8     3     4    2
     9     4     5    1
    10     5     6    1
    11     5     7    2
    12     7     8    1
    13     8     9    2
    14     9    10    1
    15    10    11    2
    16    11    12    1
    17    13    14    1
    18    14    15    1
    19    15    16    1
    20    16    17    1
    21    17    13    1
    22    12     3    1
    23    11     7    1
    24    16    18    1
@<TRIPOS>MOLECULE
*****
 22 24 0 0 0
SMALL
GASTEIGER

@<TRIPOS>ATOM
      1 C          -8.6376  -19.0432   22.7234 C.2     1  UNL1        0.1700
      2 O          -9.2744  -20.2468   23.3526 O.2     1  UNL1       -0.2916
      3 C          -7.1939  -19.0840   22.3184 C.2     1  UNL1        0.0192
      4 C          -6.7298  -20.0771   21.2947 C.2     1  UNL1        0.0301
      5 C          -5.2860  -20.1179   20.8897 C.2     1  UNL1        0.1571
      6 F          -4.8220  -21.1112   19.8659 F       1  UNL1       -0.2026
      7 C          -4.3064  -19.1654   21.5086 C.2     1  UNL1        0.1050
      8 N          -2.8323  -18.9716   21.3097 N.2     1  UNL1       -0.2419
      9 C          -2.3854  -17.8587   22.2105 C.2     1  UNL1        0.0986
     10 C          -3.5832  -17.3645   22.9662 C.2     1  UNL1        0.0183
     11 C          -4.7705  -18.1721   22.5324 C.2     1  UNL1        0.0037
     12 C          -6.2142  -18.1314   22.9373 C.3     1  UNL1        0.0572
     13 C          -9.4446  -17.7988   22.4992 C.3     1  UNL1        0.0710
     14 C         -10.2077  -16.5100   22.5822 C.3     1  UNL1        0.0257
     15 C         -10.7204  -16.1858   21.2104 C.3     1  UNL1        0.0690
     16 N         -10.2742  -17.2741   20.2796 N.3     1  UNL1       -0.2971
     17 C          -9.4857  -18.2710   21.0760 C.3     1  UNL1        0.0758
     18 H          -9.6900  -16.8806   19.5418 H       1  UNL1        0.1233
     19 C          -9.2347  -17.5868   23.9692 C.3     1  UNL1        0.0086
     20 C          -9.0836  -16.1968   24.5124 C.3     1  UNL1        0.0005
     21 C          -8.2040  -15.8432   26.9313 C.3     1  UNL1        0.0000
     22 C          -7.9589  -15.8768   25.4519 C.3     1  UNL1        0.0000
@<TRIPOS>BOND
     1    21    22    1
     2    22    20    1
     3    20    19    1
     4    19    13    1
     5    13     1    1
     6     1     2    2
     7     1     3    1
     8     3     4    2
     9     4     5    1
    10     5     6    1
    11     5     7    2
    12     7     8    1
    13     8     9    2
    14     9    10    1
    15    10    11    2
    16    11    12    1
    17    13    14    1
    18    14    15    1
    19    15    16    1
    20    16    17    1
    21    17    13    1
    22    12     3    1
    23    11     7    1
    24    16    18    1
@<TRIPOS>MOLECULE
*****
 22 24 0 0 0
SMALL
GASTEIGER

@<TRIPOS>ATOM
      1 C          -8.6908  -17.5394   23.0410 C.2     1  UNL1        0.1700
      2 O          -8.9578  -17.2337   24.4850 O.2     1  UNL1       -0.2916
      3 C          -7.3363  -18.0229   22.6147 C.2     1  UNL1        0.0192
      4 C          -6.1013  -17.4187   23.2143 C.2     1  UNL1        0.0301
      5 C          -4.7468  -17.9021   22.7880 C.2     1  UNL1        0.1571
      6 F          -3.5118  -17.2978   23.3877 F       1  UNL1       -0.2026
      7 C          -4.6274  -18.9898   21.7620 C.2     1  UNL1        0.1050
      8 N          -3.4365  -19.6658   21.1499 N.2     1  UNL1       -0.2419
      9 C          -3.9355  -20.6878   20.1720 C.2     1  UNL1        0.0986
     10 C          -5.4348  -20.6435   20.1797 C.2     1  UNL1        0.0183
     11 C          -5.8625  -19.5941   21.1624 C.2     1  UNL1        0.0037
     12 C          -7.2169  -19.1106   21.5888 C.3     1  UNL1        0.0572
     13 C          -9.7782  -17.3618   22.0233 C.3     1  UNL1        0.0710
     14 C         -10.9450  -17.4762   21.0874 C.3     1  UNL1        0.0257
     15 C         -11.0594  -16.1869   20.3295 C.3     1  UNL1        0.0690
     16 N          -9.9634  -15.2757   20.7969 N.3     1  UNL1       -0.2971
     17 C          -9.1716  -16.0017   21.8436 C.3     1  UNL1        0.0758
     18 H         -10.3652  -14.4263   21.1939 H       1  UNL1        0.1233
     19 C         -10.1575  -18.7590   22.4156 C.3     1  UNL1        0.0086
     20 C         -11.5802  -19.0794   22.7667 C.3     1  UNL1        0.0005
     21 C         -13.6349  -17.9189   23.8537 C.3     1  UNL1        0.0000
     22 C         -12.2261  -18.4245   23.9516 C.3     1  UNL1        0.0000
@<TRIPOS>BOND
     1    21    22    1
     2    22    20    1
     3    20    19    1
     4    19    13    1
     5    13     1    1
     6     1     2    2
     7     1     3    1
     8     3     4    2
     9     4     5    1
    10     5     6    1
    11     5     7    2
    12     7     8    1
    13     8     9    2
    14     9    10    1
    15    10    11    2
    16    11    12    1
    17    13    14    1
    18    14    15    1
    19    15    16    1
    20    16    17    1
    21    17    13    1
    22    12     3    1
    23    11     7    1
    24    16    18    1
@<TRIPOS>MOLECULE
*****
 22 24 0 0 0
SMALL
GASTEIGER

@<TRIPOS>ATOM
      1 C          -5.1036  -19.7180   20.9512 C.2     1  UNL1        0.1700
      2 O          -4.9926  -21.0175   20.2104 O.2     1  UNL1       -0.2916
      3 C          -6.3979  -19.3365   21.6066 C.2     1  UNL1        0.0192
      4 C          -7.1611  -20.3503   22.4063 C.2     1  UNL1        0.0301
      5 C          -8.4554  -19.9688   23.0616 C.2     1  UNL1        0.1571
      6 F          -9.2186  -20.9827   23.8613 F       1  UNL1       -0.2026
      7 C          -8.9863  -18.5733   22.9172 C.2     1  UNL1        0.1050
      8 N         -10.2243  -17.9109   23.4449 N.2     1  UNL1       -0.2419
      9 C         -10.2262  -16.4877   22.9713 C.2     1  UNL1        0.0986
     10 C          -8.9893  -16.2704   22.1510 C.2     1  UNL1        0.0183
     11 C          -8.2230  -17.5595   22.1175 C.2     1  UNL1        0.0037
     12 C          -6.9288  -17.9410   21.4622 C.3     1  UNL1        0.0572
     13 C          -3.9205  -18.8000   21.0368 C.3     1  UNL1        0.0710
     14 C          -2.7782  -17.9116   21.4319 C.3     1  UNL1        0.0257
     15 C          -2.1241  -17.4124   20.1778 C.3     1  UNL1        0.0690
     16 N          -2.8621  -17.9922   19.0077 N.3     1  UNL1       -0.2971
     17 C          -3.9723  -18.8497   19.5385 C.3     1  UNL1        0.0758
     18 H          -2.2274  -18.5575   18.4438 H       1  UNL1        0.1233
     19 C          -4.1160  -18.9421   22.5172 C.3     1  UNL1        0.0086
     20 C          -3.7126  -17.8283   23.4374 C.3     1  UNL1        0.0005
     21 C          -5.0031  -15.6112   23.8484 C.3     1  UNL1        0.0000
     22 C          -4.7596  -17.0534   24.1812 C.3     1  UNL1        0.0000
@<TRIPOS>BOND
     1    21    22    1
     2    22    20    1
     3    20    19    1
     4    19    13    1
     5    13     1    1
     6     1     2    2
     7     1     3    1
     8     3     4    2
     9     4     5    1
    10     5     6    1
    11     5     7    2
    12     7     8    1
    13     8     9    2
    14     9    10    1
    15    10    11    2
    16    11    12    1
    17    13    14    1
    18    14    15    1
    19    15    16    1
    20    16    17    1
    21    17    13    1
    22    12     3    1
    23    11     7    1
    24    16    18    1
@<TRIPOS>MOLECULE
*****
 22 24 0 0 0
SMALL
GASTEIGER

@<TRIPOS>ATOM
      1 C          -8.8086  -19.0051   22.8924 C.2     1  UNL1        0.1700
      2 O          -9.3993  -20.2847   23.4056 O.2     1  UNL1       -0.2916
      3 C          -7.3669  -18.9564   22.4810 C.2     1  UNL1        0.0192
      4 C          -6.4592  -17.9074   23.0514 C.2     1  UNL1        0.0301
      5 C          -5.0175  -17.8587   22.6401 C.2     1  UNL1        0.1571
      6 F          -4.1098  -16.8095   23.2106 F       1  UNL1       -0.2026
      7 C          -4.4836  -18.8591   21.6582 C.2     1  UNL1        0.1050
      8 N          -3.1183  -19.0575   21.0695 N.2     1  UNL1       -0.2419
      9 C          -3.1822  -20.2293   20.1352 C.2     1  UNL1        0.0986
     10 C          -4.5870  -20.7550   20.1465 C.2     1  UNL1        0.0183
     11 C          -5.3913  -19.9082   21.0878 C.2     1  UNL1        0.0037
     12 C          -6.8330  -19.9569   21.4992 C.3     1  UNL1        0.0572
     13 C          -9.6595  -17.7740   22.7905 C.3     1  UNL1        0.0710
     14 C         -10.4885  -16.5417   23.0014 C.3     1  UNL1        0.0257
     15 C         -10.9281  -16.0432   21.6568 C.3     1  UNL1        0.0690
     16 N         -10.3710  -16.9673   20.6149 N.3     1  UNL1       -0.2971
     17 C          -9.5870  -18.0370   21.3155 C.3     1  UNL1        0.0758
     18 H          -9.7610  -16.4488   19.9829 H       1  UNL1        0.1233
     19 C          -9.5542  -17.7684   24.2868 C.3     1  UNL1        0.0086
     20 C          -9.1259  -16.5224   25.0039 C.3     1  UNL1        0.0005
     21 C          -8.2212  -15.3669   27.1477 C.3     1  UNL1        0.0000
     22 C          -8.5165  -16.6159   26.3713 C.3     1  UNL1        0.0000
@<TRIPOS>BOND
     1    21    22    1
     2    22    20    1
     3    20    19    1
     4    19    13    1
     5    13     1    1
     6     1     2    2
     7     1     3    1
     8     3     4    2
     9     4     5    1
    10     5     6    1
    11     5     7    2
    12     7     8    1
    13     8     9    2
    14     9    10    1
    15    10    11    2
    16    11    12    1
    17    13    14    1
    18    14    15    1
    19    15    16    1
    20    16    17    1
    21    17    13    1
    22    12     3    1
    23    11     7    1
    24    16    18    1
@<TRIPOS>MOLECULE
*****
 22 24 0 0 0
SMALL
GASTEIGER

@<TRIPOS>ATOM
      1 C          -5.5008  -19.9492   21.0259 C.2     1  UNL1        0.1700
      2 O          -5.4797  -21.2743   20.3234 O.2     1  UNL1       -0.2916
      3 C          -6.7669  -19.4581   21.6630 C.2     1  UNL1        0.0192
      4 C          -7.2973  -18.0964   21.3250 C.2     1  UNL1        0.0301
      5 C          -8.5635  -17.6053   21.9620 C.2     1  UNL1        0.1571
      6 F          -9.0939  -16.2434   21.6240 F       1  UNL1       -0.2026
      7 C          -9.2991  -18.4760   22.9370 C.2     1  UNL1        0.1050
      8 N         -10.5622  -18.2636   23.7178 N.2     1  UNL1       -0.2419
      9 C         -10.8124  -19.4941   24.5383 C.2     1  UNL1        0.0986
     10 C          -9.7039  -20.4670   24.2647 C.2     1  UNL1        0.0183
     11 C          -8.7687  -19.8377   23.2750 C.2     1  UNL1        0.0037
     12 C          -7.5026  -20.3288   22.6380 C.3     1  UNL1        0.0572
     13 C          -4.2558  -19.1152   21.0915 C.3     1  UNL1        0.0710
     14 C          -3.0771  -18.2650   21.4631 C.3     1  UNL1        0.0257
     15 C          -2.2916  -17.9908   20.2151 C.3     1  UNL1        0.0690
     16 N          -2.9847  -18.6715   19.0722 N.3     1  UNL1       -0.2971
     17 C          -4.1986  -19.3664   19.6138 C.3     1  UNL1        0.0758
     18 H          -2.3581  -19.3528   18.6437 H       1  UNL1        0.1233
     19 C          -4.5732  -19.0383   22.5555 C.3     1  UNL1        0.0086
     20 C          -4.1811  -17.8249   23.3453 C.3     1  UNL1        0.0005
     21 C          -4.9681  -15.3979   23.8357 C.3     1  UNL1        0.0000
     22 C          -5.2343  -16.8741   23.8319 C.3     1  UNL1        0.0000
@<TRIPOS>BOND
     1    21    22    1
     2    22    20    1
     3    20    19    1
     4    19    13    1
     5    13     1    1
     6     1     2    2
     7     1     3    1
     8     3     4    2
     9     4     5    1
    10     5     6    1
    11     5     7    2
    12     7     8    1
    13     8     9    2
    14     9    10    1
    15    10    11    2
    16    11    12    1
    17    13    14    1
    18    14    15    1
    19    15    16    1
    20    16    17    1
    21    17    13    1
    22    12     3    1
    23    11     7    1
    24    16    18    1
