@<TRIPOS>MOLECULE
*****
 36 40 0 0 0
SMALL
GASTEIGER

@<TRIPOS>ATOM
      1 O           1.2086    1.1237   29.9821 O.2     1  UNL1       -0.2726
      2 C           1.0479    1.2471   28.4958 C.2     1  UNL1        0.2500
      3 C          -0.2235    1.7991   27.9222 C.3     1  UNL1        0.1135
      4 C          -0.3842    1.9226   26.4360 C.2     1  UNL1       -0.0118
      5 C           0.7264    1.4941   25.5233 C.ar    1  UNL1        0.0116
      6 C           0.5657    1.6175   24.0371 C.ar    1  UNL1       -0.0026
      7 C           1.6763    1.1890   23.1245 C.ar    1  UNL1       -0.0122
      8 C           2.9476    0.6371   23.6981 C.ar    1  UNL1       -0.0022
      9 C           3.1084    0.5136   25.1843 C.ar    1  UNL1        0.0163
     10 C           1.9978    0.9421   26.0969 C.ar    1  UNL1        0.0730
     11 N           2.1585    0.8186   27.5832 N.am    1  UNL1       -0.1789
     12 C          -1.6556    2.4745   25.8624 C.2     1  UNL1       -0.0037
     13 C          -2.5297    3.3646   26.6951 C.2     1  UNL1       -0.0003
     14 C          -3.8011    3.9166   26.1215 C.ar    1  UNL1       -0.0000
     15 C          -4.2341    3.5222   24.7406 C.ar    1  UNL1       -0.0001
     16 C          -5.5055    4.0742   24.1670 C.ar    1  UNL1        0.0039
     17 C          -6.3438    5.0205   24.9743 C.ar    1  UNL1        0.0714
     18 C          -5.9107    5.4148   26.3552 C.ar    1  UNL1        0.0039
     19 C          -4.6393    4.8629   26.9288 C.ar    1  UNL1       -0.0001
     20 C          -7.6151    5.5725   24.4007 C.3     1  UNL1        0.4186
     21 F          -8.8864    6.1244   23.8271 F       1  UNL1       -0.1659
     22 F          -7.6608    4.4428   23.4150 F       1  UNL1       -0.1659
     23 F          -7.5694    6.7021   25.3865 F       1  UNL1       -0.1659
     24 C           1.5156    1.3125   21.6382 C.3     1  UNL1        0.0909
     25 C           2.3386    0.4570   20.7212 C.ar    1  UNL1       -0.0122
     26 C           2.0851   -1.0194   20.6442 C.ar    1  UNL1       -0.0027
     27 C           2.9081   -1.8749   19.7273 C.ar    1  UNL1        0.0111
     28 C           3.9847   -1.2539   18.8873 C.ar    1  UNL1        0.0577
     29 CL          4.8077   -2.1093   17.9704 Cl      1  UNL1       -0.0822
     30 C           4.2382    0.2225   18.9644 C.ar    1  UNL1        0.0111
     31 C           3.4151    1.0780   19.8813 C.ar    1  UNL1       -0.0027
     32 C           0.5319    2.2914   21.0689 C.ar    1  UNL1        0.0961
     33 N          -0.8984    2.0028   20.7209 N.ar    1  UNL1       -0.2405
     34 C          -1.5085    3.2638   20.1846 C.ar    1  UNL1        0.1061
     35 C          -0.4552    4.3317   20.2012 C.ar    1  UNL1        0.0572
     36 S           0.8058    3.7308   20.7477 S.2     1  UNL1       -0.0696
@<TRIPOS>BOND
     1     1     2    2
     2     2     3    1
     3     3     4    1
     4     4    12    1
     5    12    13    2
     6    13    14    1
     7    14    15   ar
     8    15    16   ar
     9    16    17   ar
    10    17    20    1
    11    20    21    1
    12    20    22    1
    13    20    23    1
    14    17    18   ar
    15    18    19   ar
    16     4     5    2
    17     5     6   ar
    18     6     7   ar
    19     7    24    1
    20    24    25    1
    21    25    26   ar
    22    26    27   ar
    23    27    28   ar
    24    28    29    1
    25    28    30   ar
    26    30    31   ar
    27    24    32    1
    28    32    33   ar
    29    33    34   ar
    30    34    35   ar
    31    35    36   ar
    32     7     8   ar
    33     8     9   ar
    34     9    10   ar
    35    10    11    2
    36    11     2    1
    37    19    14   ar
    38    10     5   ar
    39    31    25   ar
    40    36    32   ar
@<TRIPOS>MOLECULE
*****
 36 40 0 0 0
SMALL
GASTEIGER

@<TRIPOS>ATOM
      1 O           9.3460   -7.3407   24.8122 O.2     1  UNL1       -0.2726
      2 C           8.5510   -6.2354   25.4419 C.2     1  UNL1        0.2500
      3 C           7.6515   -5.3830   24.5967 C.3     1  UNL1        0.1135
      4 C           6.8565   -4.2778   25.2264 C.2     1  UNL1       -0.0118
      5 C           6.9610   -4.0250   26.7013 C.ar    1  UNL1        0.0116
      6 C           6.1661   -2.9198   27.3309 C.ar    1  UNL1       -0.0026
      7 C           6.2706   -2.6670   28.8058 C.ar    1  UNL1       -0.0122
      8 C           7.1701   -3.5194   29.6509 C.ar    1  UNL1       -0.0022
      9 C           7.9650   -4.6246   29.0213 C.ar    1  UNL1        0.0163
     10 C           7.8605   -4.8774   27.5465 C.ar    1  UNL1        0.0730
     11 N           8.6555   -5.9826   26.9167 N.am    1  UNL1       -0.1789
     12 C           5.9570   -3.4254   24.3812 C.2     1  UNL1       -0.0037
     13 C           5.4964   -3.9195   23.0420 C.2     1  UNL1       -0.0003
     14 C           4.5969   -3.0671   22.1968 C.ar    1  UNL1       -0.0000
     15 C           3.8986   -1.8850   22.8012 C.ar    1  UNL1       -0.0001
     16 C           2.9991   -1.0326   21.9560 C.ar    1  UNL1        0.0039
     17 C           2.7979   -1.3622   20.5065 C.ar    1  UNL1        0.0714
     18 C           3.4963   -2.5442   19.9023 C.ar    1  UNL1        0.0039
     19 C           4.3958   -3.3967   20.7474 C.ar    1  UNL1       -0.0001
     20 C           1.8985   -0.5098   19.6613 C.3     1  UNL1        0.4186
     21 F           0.9990    0.3426   18.8162 F       1  UNL1       -0.1659
     22 F           0.7214   -0.9289   20.4914 F       1  UNL1       -0.1659
     23 F           3.0755   -0.0907   18.8313 F       1  UNL1       -0.1659
     24 C           5.4756   -1.5617   29.4355 C.3     1  UNL1        0.0909
     25 C           5.6045   -1.2882   30.9047 C.ar    1  UNL1       -0.0122
     26 C           4.7050   -1.9886   31.8797 C.ar    1  UNL1       -0.0027
     27 C           4.8339   -1.7152   33.3489 C.ar    1  UNL1        0.0111
     28 C           5.8623   -0.7413   33.8431 C.ar    1  UNL1        0.0577
     29 CL          5.9912   -0.4678   35.3124 Cl      1  UNL1       -0.0822
     30 C           6.7616   -0.0410   32.8682 C.ar    1  UNL1        0.0111
     31 C           6.6328   -0.3144   31.3990 C.ar    1  UNL1       -0.0027
     32 C           4.5518   -0.7300   28.5960 C.ar    1  UNL1        0.0961
     33 N           3.1750   -1.1217   28.1476 N.ar    1  UNL1       -0.2405
     34 C           2.6149    0.0057   27.3320 C.ar    1  UNL1        0.1061
     35 C           3.6455    1.0942   27.2763 C.ar    1  UNL1        0.0572
     36 S           4.8425    0.6395   28.0576 S.2     1  UNL1       -0.0696
@<TRIPOS>BOND
     1     1     2    2
     2     2     3    1
     3     3     4    1
     4     4    12    1
     5    12    13    2
     6    13    14    1
     7    14    15   ar
     8    15    16   ar
     9    16    17   ar
    10    17    20    1
    11    20    21    1
    12    20    22    1
    13    20    23    1
    14    17    18   ar
    15    18    19   ar
    16     4     5    2
    17     5     6   ar
    18     6     7   ar
    19     7    24    1
    20    24    25    1
    21    25    26   ar
    22    26    27   ar
    23    27    28   ar
    24    28    29    1
    25    28    30   ar
    26    30    31   ar
    27    24    32    1
    28    32    33   ar
    29    33    34   ar
    30    34    35   ar
    31    35    36   ar
    32     7     8   ar
    33     8     9   ar
    34     9    10   ar
    35    10    11    2
    36    11     2    1
    37    19    14   ar
    38    10     5   ar
    39    31    25   ar
    40    36    32   ar
@<TRIPOS>MOLECULE
*****
 36 40 0 0 0
SMALL
GASTEIGER

@<TRIPOS>ATOM
      1 O           4.8404   -4.7690   18.6204 O.2     1  UNL1       -0.2726
      2 C           4.3761   -3.8178   19.6833 C.2     1  UNL1        0.2500
      3 C           3.2947   -2.8236   19.3797 C.3     1  UNL1        0.1135
      4 C           2.8304   -1.8725   20.4426 C.2     1  UNL1       -0.0118
      5 C           3.4474   -1.9156   21.8092 C.ar    1  UNL1        0.0116
      6 C           2.9831   -0.9645   22.8721 C.ar    1  UNL1       -0.0026
      7 C           3.6001   -1.0077   24.2386 C.ar    1  UNL1       -0.0122
      8 C           4.6815   -2.0019   24.5422 C.ar    1  UNL1       -0.0022
      9 C           5.1458   -2.9530   23.4793 C.ar    1  UNL1        0.0163
     10 C           4.5288   -2.9098   22.1128 C.ar    1  UNL1        0.0730
     11 N           4.9931   -3.8610   21.0498 N.am    1  UNL1       -0.1789
     12 C           1.7490   -0.8783   20.1390 C.2     1  UNL1       -0.0037
     13 C           2.0802    0.5807   20.0318 C.2     1  UNL1       -0.0003
     14 C           0.9988    1.5749   19.7282 C.ar    1  UNL1       -0.0000
     15 C           0.0158    1.9625   20.7929 C.ar    1  UNL1       -0.0001
     16 C          -1.0656    2.9567   20.4893 C.ar    1  UNL1        0.0039
     17 C          -1.1639    3.5633   19.1210 C.ar    1  UNL1        0.0714
     18 C          -0.1810    3.1758   18.0563 C.ar    1  UNL1        0.0039
     19 C           0.9004    2.1816   18.3599 C.ar    1  UNL1       -0.0001
     20 C          -2.2453    4.5576   18.8174 C.3     1  UNL1        0.4186
     21 F          -3.3267    5.5518   18.5138 F       1  UNL1       -0.1659
     22 F          -3.2814    3.5625   19.2491 F       1  UNL1       -0.1659
     23 F          -1.2092    5.5526   18.3857 F       1  UNL1       -0.1659
     24 C           3.1358   -0.0565   25.3016 C.3     1  UNL1        0.0909
     25 C           2.1822    1.0482   24.9549 C.ar    1  UNL1       -0.0122
     26 C           2.6953    2.3163   24.3395 C.ar    1  UNL1       -0.0027
     27 C           1.7417    3.4211   23.9928 C.ar    1  UNL1        0.0111
     28 C           0.2750    3.2577   24.2615 C.ar    1  UNL1        0.0577
     29 CL         -0.6786    4.3624   23.9148 Cl      1  UNL1       -0.0822
     30 C          -0.2381    1.9896   24.8769 C.ar    1  UNL1        0.0111
     31 C           0.7155    0.8849   25.2236 C.ar    1  UNL1       -0.0027
     32 C           3.6251   -0.2102   26.7112 C.ar    1  UNL1        0.0961
     33 N           3.1170   -1.1993   27.7179 N.ar    1  UNL1       -0.2405
     34 C           3.8863   -1.0022   28.9905 C.ar    1  UNL1        0.1061
     35 C           4.8697    0.1089   28.7702 C.ar    1  UNL1        0.0572
     36 S           4.7083    0.5983   27.3615 S.2     1  UNL1       -0.0696
@<TRIPOS>BOND
     1     1     2    2
     2     2     3    1
     3     3     4    1
     4     4    12    1
     5    12    13    2
     6    13    14    1
     7    14    15   ar
     8    15    16   ar
     9    16    17   ar
    10    17    20    1
    11    20    21    1
    12    20    22    1
    13    20    23    1
    14    17    18   ar
    15    18    19   ar
    16     4     5    2
    17     5     6   ar
    18     6     7   ar
    19     7    24    1
    20    24    25    1
    21    25    26   ar
    22    26    27   ar
    23    27    28   ar
    24    28    29    1
    25    28    30   ar
    26    30    31   ar
    27    24    32    1
    28    32    33   ar
    29    33    34   ar
    30    34    35   ar
    31    35    36   ar
    32     7     8   ar
    33     8     9   ar
    34     9    10   ar
    35    10    11    2
    36    11     2    1
    37    19    14   ar
    38    10     5   ar
    39    31    25   ar
    40    36    32   ar
@<TRIPOS>MOLECULE
*****
 36 40 0 0 0
SMALL
GASTEIGER

@<TRIPOS>ATOM
      1 O          -4.3407    4.8299   19.7313 O.2     1  UNL1       -0.2726
      2 C          -3.3075    4.2266   20.6362 C.2     1  UNL1        0.2500
      3 C          -2.1109    3.5357   20.0525 C.3     1  UNL1        0.1135
      4 C          -1.0778    2.9324   20.9573 C.2     1  UNL1       -0.0118
      5 C          -1.2413    3.0201   22.4459 C.ar    1  UNL1        0.0116
      6 C          -0.2082    2.4168   23.3507 C.ar    1  UNL1       -0.0026
      7 C          -0.3717    2.5044   24.8391 C.ar    1  UNL1       -0.0122
      8 C          -1.5684    3.1954   25.4228 C.ar    1  UNL1       -0.0022
      9 C          -2.6015    3.7986   24.5180 C.ar    1  UNL1        0.0163
     10 C          -2.4379    3.7110   23.0295 C.ar    1  UNL1        0.0730
     11 N          -3.4711    4.3143   22.1246 N.am    1  UNL1       -0.1789
     12 C           0.1189    2.2415   20.3737 C.2     1  UNL1       -0.0037
     13 C           0.1882    0.7432   20.3619 C.2     1  UNL1       -0.0003
     14 C           1.3848    0.0523   19.7783 C.ar    1  UNL1       -0.0000
     15 C           1.9217    0.4804   18.4446 C.ar    1  UNL1       -0.0001
     16 C           3.1183   -0.2105   17.8609 C.ar    1  UNL1        0.0039
     17 C           3.7782   -1.3296   18.6110 C.ar    1  UNL1        0.0714
     18 C           3.2413   -1.7576   19.9446 C.ar    1  UNL1        0.0039
     19 C           2.0447   -1.0667   20.5282 C.ar    1  UNL1       -0.0001
     20 C           4.9748   -2.0205   18.0273 C.3     1  UNL1        0.4186
     21 F           6.1715   -2.7114   17.4437 F       1  UNL1       -0.1659
     22 F           4.4996   -3.3244   18.5965 F       1  UNL1       -0.1659
     23 F           5.4501   -0.7166   17.4582 F       1  UNL1       -0.1659
     24 C           0.6614    1.9012   25.7440 C.3     1  UNL1        0.0909
     25 C           2.0221    1.5650   25.2096 C.ar    1  UNL1       -0.0122
     26 C           2.2711    0.2261   24.5808 C.ar    1  UNL1       -0.0027
     27 C           3.6318   -0.1101   24.0465 C.ar    1  UNL1        0.0111
     28 C           4.7434    0.8927   24.1409 C.ar    1  UNL1        0.0577
     29 CL          6.1041    0.5566   23.6065 Cl      1  UNL1       -0.0822
     30 C           4.4943    2.2316   24.7697 C.ar    1  UNL1        0.0111
     31 C           3.1336    2.5677   25.3041 C.ar    1  UNL1       -0.0027
     32 C           0.3338    1.6341   27.1832 C.ar    1  UNL1        0.0961
     33 N          -0.5785    0.5589   27.6950 N.ar    1  UNL1       -0.2405
     34 C          -0.6151    0.6556   29.1914 C.ar    1  UNL1        0.1061
     35 C           0.2746    1.7905   29.6045 C.ar    1  UNL1        0.0572
     36 S           0.8610    2.3952   28.3633 S.2     1  UNL1       -0.0696
@<TRIPOS>BOND
     1     1     2    2
     2     2     3    1
     3     3     4    1
     4     4    12    1
     5    12    13    2
     6    13    14    1
     7    14    15   ar
     8    15    16   ar
     9    16    17   ar
    10    17    20    1
    11    20    21    1
    12    20    22    1
    13    20    23    1
    14    17    18   ar
    15    18    19   ar
    16     4     5    2
    17     5     6   ar
    18     6     7   ar
    19     7    24    1
    20    24    25    1
    21    25    26   ar
    22    26    27   ar
    23    27    28   ar
    24    28    29    1
    25    28    30   ar
    26    30    31   ar
    27    24    32    1
    28    32    33   ar
    29    33    34   ar
    30    34    35   ar
    31    35    36   ar
    32     7     8   ar
    33     8     9   ar
    34     9    10   ar
    35    10    11    2
    36    11     2    1
    37    19    14   ar
    38    10     5   ar
    39    31    25   ar
    40    36    32   ar
@<TRIPOS>MOLECULE
*****
 36 40 0 0 0
SMALL
GASTEIGER

@<TRIPOS>ATOM
      1 O           4.6286   -0.9397   29.2028 O.2     1  UNL1       -0.2726
      2 C           4.2562   -0.8751   27.7511 C.2     1  UNL1        0.2500
      3 C           3.1560    0.0388   27.2991 C.3     1  UNL1        0.1135
      4 C           2.7835    0.1034   25.8475 C.2     1  UNL1       -0.0118
      5 C           3.5112   -0.7459   24.8479 C.ar    1  UNL1        0.0116
      6 C           3.1387   -0.6813   23.3964 C.ar    1  UNL1       -0.0026
      7 C           3.8664   -1.5307   22.3969 C.ar    1  UNL1       -0.0122
      8 C           4.9666   -2.4446   22.8489 C.ar    1  UNL1       -0.0022
      9 C           5.3391   -2.5092   24.3005 C.ar    1  UNL1        0.0163
     10 C           4.6114   -1.6599   25.3000 C.ar    1  UNL1        0.0730
     11 N           4.9838   -1.7244   26.7516 N.am    1  UNL1       -0.1789
     12 C           1.6833    1.0174   25.3955 C.2     1  UNL1       -0.0037
     13 C           0.5383    1.3246   26.3145 C.2     1  UNL1       -0.0003
     14 C          -0.5618    2.2385   25.8624 C.ar    1  UNL1       -0.0000
     15 C          -0.6360    2.6706   24.4279 C.ar    1  UNL1       -0.0001
     16 C          -1.7362    3.5845   23.9758 C.ar    1  UNL1        0.0039
     17 C          -2.7622    4.0664   24.9583 C.ar    1  UNL1        0.0714
     18 C          -2.6880    3.6342   26.3928 C.ar    1  UNL1        0.0039
     19 C          -1.5878    2.7203   26.8448 C.ar    1  UNL1       -0.0001
     20 C          -3.8623    4.9803   24.5063 C.3     1  UNL1        0.4186
     21 F          -4.9625    5.8942   24.0543 F       1  UNL1       -0.1659
     22 F          -4.8060    4.3196   25.4671 F       1  UNL1       -0.1659
     23 F          -2.9187    5.6410   23.5455 F       1  UNL1       -0.1659
     24 C           3.4939   -1.4661   20.9452 C.3     1  UNL1        0.0909
     25 C           2.5817   -0.3821   20.4525 C.ar    1  UNL1       -0.0122
     26 C           3.1565    0.8650   19.8488 C.ar    1  UNL1       -0.0027
     27 C           2.2443    1.9491   19.3561 C.ar    1  UNL1        0.0111
     28 C           0.7573    1.7860   19.4671 C.ar    1  UNL1        0.0577
     29 CL         -0.1549    2.8700   18.9744 Cl      1  UNL1       -0.0822
     30 C           0.1826    0.5389   20.0708 C.ar    1  UNL1        0.0111
     31 C           1.0948   -0.5451   20.5635 C.ar    1  UNL1       -0.0027
     32 C           4.0337   -2.4855   19.9864 C.ar    1  UNL1        0.0961
     33 N           3.5032   -3.8740   19.7847 N.ar    1  UNL1       -0.2405
     34 C           4.3403   -4.5421   18.7345 C.ar    1  UNL1        0.1061
     35 C           5.3883   -3.5664   18.2872 C.ar    1  UNL1        0.0572
     36 S           5.1987   -2.2954   19.0609 S.2     1  UNL1       -0.0696
@<TRIPOS>BOND
     1     1     2    2
     2     2     3    1
     3     3     4    1
     4     4    12    1
     5    12    13    2
     6    13    14    1
     7    14    15   ar
     8    15    16   ar
     9    16    17   ar
    10    17    20    1
    11    20    21    1
    12    20    22    1
    13    20    23    1
    14    17    18   ar
    15    18    19   ar
    16     4     5    2
    17     5     6   ar
    18     6     7   ar
    19     7    24    1
    20    24    25    1
    21    25    26   ar
    22    26    27   ar
    23    27    28   ar
    24    28    29    1
    25    28    30   ar
    26    30    31   ar
    27    24    32    1
    28    32    33   ar
    29    33    34   ar
    30    34    35   ar
    31    35    36   ar
    32     7     8   ar
    33     8     9   ar
    34     9    10   ar
    35    10    11    2
    36    11     2    1
    37    19    14   ar
    38    10     5   ar
    39    31    25   ar
    40    36    32   ar
@<TRIPOS>MOLECULE
*****
 36 40 0 0 0
SMALL
GASTEIGER

@<TRIPOS>ATOM
      1 O           9.4362   -9.2529   27.5257 O.2     1  UNL1       -0.2726
      2 C           8.7463   -7.9512   27.8081 C.2     1  UNL1        0.2500
      3 C           8.0593   -7.2105   26.6993 C.3     1  UNL1        0.1135
      4 C           7.3694   -5.9088   26.9816 C.2     1  UNL1       -0.0118
      5 C           7.3665   -5.3478   28.3728 C.ar    1  UNL1        0.0116
      6 C           6.6767   -4.0462   28.6552 C.ar    1  UNL1       -0.0026
      7 C           6.6738   -3.4853   30.0463 C.ar    1  UNL1       -0.0122
      8 C           7.3607   -4.2260   31.1551 C.ar    1  UNL1       -0.0022
      9 C           8.0506   -5.5277   30.8728 C.ar    1  UNL1        0.0163
     10 C           8.0535   -6.0886   29.4816 C.ar    1  UNL1        0.0730
     11 N           8.7434   -7.3903   29.1992 N.am    1  UNL1       -0.1789
     12 C           6.6825   -5.1681   25.8728 C.2     1  UNL1       -0.0037
     13 C           7.3607   -5.0087   24.5445 C.2     1  UNL1       -0.0003
     14 C           6.6738   -4.2679   23.4357 C.ar    1  UNL1       -0.0000
     15 C           5.4107   -3.5073   23.7118 C.ar    1  UNL1       -0.0001
     16 C           4.7237   -2.7666   22.6030 C.ar    1  UNL1        0.0039
     17 C           5.2999   -2.7865   21.2182 C.ar    1  UNL1        0.0714
     18 C           6.5629   -3.5471   20.9421 C.ar    1  UNL1        0.0039
     19 C           7.2498   -4.2878   22.0509 C.ar    1  UNL1       -0.0001
     20 C           4.6129   -2.0458   20.1094 C.3     1  UNL1        0.4186
     21 F           3.9260   -1.3050   19.0006 F       1  UNL1       -0.1659
     22 F           5.6305   -0.9485   20.2120 F       1  UNL1       -0.1659
     23 F           3.5954   -3.1431   20.0068 F       1  UNL1       -0.1659
     24 C           5.9839   -2.1836   30.3287 C.3     1  UNL1        0.0909
     25 C           5.7317   -1.7603   31.7455 C.ar    1  UNL1       -0.0122
     26 C           6.6731   -0.8091   32.4230 C.ar    1  UNL1       -0.0027
     27 C           6.4210   -0.3859   33.8398 C.ar    1  UNL1        0.0111
     28 C           5.2274   -0.9139   34.5791 C.ar    1  UNL1        0.0577
     29 CL          4.9752   -0.4907   35.9959 Cl      1  UNL1       -0.0822
     30 C           4.2860   -1.8651   33.9017 C.ar    1  UNL1        0.0111
     31 C           4.5382   -2.2883   32.4849 C.ar    1  UNL1       -0.0027
     32 C           5.5462   -1.3052   29.1944 C.ar    1  UNL1        0.0961
     33 N           4.2258   -1.3724   28.4859 N.ar    1  UNL1       -0.2405
     34 C           4.2156   -0.3141   27.4230 C.ar    1  UNL1        0.1061
     35 C           5.5298    0.4073   27.4746 C.ar    1  UNL1        0.0572
     36 S           6.3521   -0.2052   28.5694 S.2     1  UNL1       -0.0696
@<TRIPOS>BOND
     1     1     2    2
     2     2     3    1
     3     3     4    1
     4     4    12    1
     5    12    13    2
     6    13    14    1
     7    14    15   ar
     8    15    16   ar
     9    16    17   ar
    10    17    20    1
    11    20    21    1
    12    20    22    1
    13    20    23    1
    14    17    18   ar
    15    18    19   ar
    16     4     5    2
    17     5     6   ar
    18     6     7   ar
    19     7    24    1
    20    24    25    1
    21    25    26   ar
    22    26    27   ar
    23    27    28   ar
    24    28    29    1
    25    28    30   ar
    26    30    31   ar
    27    24    32    1
    28    32    33   ar
    29    33    34   ar
    30    34    35   ar
    31    35    36   ar
    32     7     8   ar
    33     8     9   ar
    34     9    10   ar
    35    10    11    2
    36    11     2    1
    37    19    14   ar
    38    10     5   ar
    39    31    25   ar
    40    36    32   ar
@<TRIPOS>MOLECULE
*****
 36 40 0 0 0
SMALL
GASTEIGER

@<TRIPOS>ATOM
      1 O          -2.5587    4.1955   20.8784 O.2     1  UNL1       -0.2726
      2 C          -1.4607    3.2271   21.2050 C.2     1  UNL1        0.2500
      3 C          -0.9479    3.1209   22.6106 C.3     1  UNL1        0.1135
      4 C           0.1501    2.1525   22.9372 C.2     1  UNL1       -0.0118
      5 C           0.7353    1.2904   21.8582 C.ar    1  UNL1        0.0116
      6 C           1.8333    0.3220   22.1848 C.ar    1  UNL1       -0.0026
      7 C           2.4185   -0.5401   21.1058 C.ar    1  UNL1       -0.0122
      8 C           1.9057   -0.4338   19.7001 C.ar    1  UNL1       -0.0022
      9 C           0.8078    0.5345   19.3735 C.ar    1  UNL1        0.0163
     10 C           0.2226    1.3966   20.4525 C.ar    1  UNL1        0.0730
     11 N          -0.8755    2.3650   20.1260 N.am    1  UNL1       -0.1789
     12 C           0.6628    2.0463   24.3428 C.2     1  UNL1       -0.0037
     13 C          -0.1784    1.3962   25.4009 C.2     1  UNL1       -0.0003
     14 C           0.3343    1.2900   26.8066 C.ar    1  UNL1       -0.0000
     15 C           1.8056    1.3985   27.0784 C.ar    1  UNL1       -0.0001
     16 C           2.3183    1.2923   28.4840 C.ar    1  UNL1        0.0039
     17 C           1.3599    1.0774   29.6178 C.ar    1  UNL1        0.0714
     18 C          -0.1112    0.9689   29.3459 C.ar    1  UNL1        0.0039
     19 C          -0.6240    1.0751   27.9403 C.ar    1  UNL1       -0.0001
     20 C           1.8727    0.9712   31.0234 C.3     1  UNL1        0.4186
     21 F           2.3854    0.8649   32.4290 F       1  UNL1       -0.1659
     22 F           2.6437   -0.2598   30.6491 F       1  UNL1       -0.1659
     23 F           1.1016    2.2021   31.3978 F       1  UNL1       -0.1659
     24 C           3.5165   -1.5085   21.4324 C.3     1  UNL1        0.0909
     25 C           3.9941   -1.6515   22.8471 C.ar    1  UNL1       -0.0122
     26 C           3.3758   -0.8240   23.9347 C.ar    1  UNL1       -0.0027
     27 C           3.8535   -0.9670   25.3494 C.ar    1  UNL1        0.0111
     28 C           4.9494   -1.9376   25.6765 C.ar    1  UNL1        0.0577
     29 CL          5.4270   -2.0807   27.0912 Cl      1  UNL1       -0.0822
     30 C           5.5676   -2.7652   24.5889 C.ar    1  UNL1        0.0111
     31 C           5.0900   -2.6221   23.1742 C.ar    1  UNL1       -0.0027
     32 C           4.1369   -2.3338   20.3443 C.ar    1  UNL1        0.0961
     33 N           3.7249   -3.7198   19.9452 N.ar    1  UNL1       -0.2405
     34 C           4.6115   -4.1606   18.8184 C.ar    1  UNL1        0.1061
     35 C           5.5715   -3.0470   18.5212 C.ar    1  UNL1        0.0572
     36 S           5.2782   -1.9180   19.4642 S.2     1  UNL1       -0.0696
@<TRIPOS>BOND
     1     1     2    2
     2     2     3    1
     3     3     4    1
     4     4    12    1
     5    12    13    2
     6    13    14    1
     7    14    15   ar
     8    15    16   ar
     9    16    17   ar
    10    17    20    1
    11    20    21    1
    12    20    22    1
    13    20    23    1
    14    17    18   ar
    15    18    19   ar
    16     4     5    2
    17     5     6   ar
    18     6     7   ar
    19     7    24    1
    20    24    25    1
    21    25    26   ar
    22    26    27   ar
    23    27    28   ar
    24    28    29    1
    25    28    30   ar
    26    30    31   ar
    27    24    32    1
    28    32    33   ar
    29    33    34   ar
    30    34    35   ar
    31    35    36   ar
    32     7     8   ar
    33     8     9   ar
    34     9    10   ar
    35    10    11    2
    36    11     2    1
    37    19    14   ar
    38    10     5   ar
    39    31    25   ar
    40    36    32   ar
@<TRIPOS>MOLECULE
*****
 36 40 0 0 0
SMALL
GASTEIGER

@<TRIPOS>ATOM
      1 O          -4.3142    4.3363   19.4743 O.2     1  UNL1       -0.2726
      2 C          -3.2209    3.8558   20.3819 C.2     1  UNL1        0.2500
      3 C          -1.9990    3.2048   19.8048 C.3     1  UNL1        0.1135
      4 C          -0.9056    2.7243   20.7123 C.2     1  UNL1       -0.0118
      5 C          -1.0342    2.8948   22.1971 C.ar    1  UNL1        0.0116
      6 C           0.0592    2.4143   23.1046 C.ar    1  UNL1       -0.0026
      7 C          -0.0694    2.5848   24.5893 C.ar    1  UNL1       -0.0122
      8 C          -1.2913    3.2359   25.1664 C.ar    1  UNL1       -0.0022
      9 C          -2.3847    3.7164   24.2589 C.ar    1  UNL1        0.0163
     10 C          -2.2561    3.5458   22.7742 C.ar    1  UNL1        0.0730
     11 N          -3.3494    4.0264   21.8666 N.am    1  UNL1       -0.1789
     12 C           0.3163    2.0733   20.1352 C.2     1  UNL1       -0.0037
     13 C           0.4980    0.5884   20.2455 C.2     1  UNL1       -0.0003
     14 C           1.7199   -0.0626   19.6683 C.ar    1  UNL1       -0.0000
     15 C           2.3186   -1.2626   20.3404 C.ar    1  UNL1       -0.0001
     16 C           3.5405   -1.9136   19.7632 C.ar    1  UNL1        0.0039
     17 C           4.1637   -1.3647   18.5140 C.ar    1  UNL1        0.0714
     18 C           3.5649   -0.1647   17.8421 C.ar    1  UNL1        0.0039
     19 C           2.3430    0.4863   18.4192 C.ar    1  UNL1       -0.0001
     20 C           5.3856   -2.0157   17.9369 C.3     1  UNL1        0.4186
     21 F           6.6075   -2.6667   17.3598 F       1  UNL1       -0.1659
     22 F           5.7952   -0.7073   17.3283 F       1  UNL1       -0.1659
     23 F           4.9760   -3.3241   18.5455 F       1  UNL1       -0.1659
     24 C           1.0240    2.1043   25.4969 C.3     1  UNL1        0.0909
     25 C           0.8287    2.1277   26.9840 C.ar    1  UNL1       -0.0122
     26 C           0.0781    1.0184   27.6594 C.ar    1  UNL1       -0.0027
     27 C          -0.1171    1.0417   29.1464 C.ar    1  UNL1        0.0111
     28 C           0.4382    2.1744   29.9581 C.ar    1  UNL1        0.0577
     29 CL          0.2430    2.1977   31.4452 Cl      1  UNL1       -0.0822
     30 C           1.1888    3.2836   29.2827 C.ar    1  UNL1        0.0111
     31 C           1.3840    3.2603   27.7957 C.ar    1  UNL1       -0.0027
     32 C           2.3125    1.6005   24.9175 C.ar    1  UNL1        0.0961
     33 N           3.4810    2.4436   24.5004 N.ar    1  UNL1       -0.2405
     34 C           4.5495    1.5293   23.9785 C.ar    1  UNL1        0.1061
     35 C           4.0413    0.1211   24.0732 C.ar    1  UNL1        0.0572
     36 S           2.6588    0.1651   24.6535 S.2     1  UNL1       -0.0696
@<TRIPOS>BOND
     1     1     2    2
     2     2     3    1
     3     3     4    1
     4     4    12    1
     5    12    13    2
     6    13    14    1
     7    14    15   ar
     8    15    16   ar
     9    16    17   ar
    10    17    20    1
    11    20    21    1
    12    20    22    1
    13    20    23    1
    14    17    18   ar
    15    18    19   ar
    16     4     5    2
    17     5     6   ar
    18     6     7   ar
    19     7    24    1
    20    24    25    1
    21    25    26   ar
    22    26    27   ar
    23    27    28   ar
    24    28    29    1
    25    28    30   ar
    26    30    31   ar
    27    24    32    1
    28    32    33   ar
    29    33    34   ar
    30    34    35   ar
    31    35    36   ar
    32     7     8   ar
    33     8     9   ar
    34     9    10   ar
    35    10    11    2
    36    11     2    1
    37    19    14   ar
    38    10     5   ar
    39    31    25   ar
    40    36    32   ar
@<TRIPOS>MOLECULE
*****
 36 40 0 0 0
SMALL
GASTEIGER

@<TRIPOS>ATOM
      1 O           4.2529    0.2802   18.7607 O.2     1  UNL1       -0.2726
      2 C           2.9602    0.8689   19.2431 C.2     1  UNL1        0.2500
      3 C           2.5175    0.6476   20.6590 C.3     1  UNL1        0.1135
      4 C           1.2249    1.2362   21.1414 C.2     1  UNL1       -0.0118
      5 C           0.3749    2.0461   20.2077 C.ar    1  UNL1        0.0116
      6 C          -0.9177    2.6346   20.6900 C.ar    1  UNL1       -0.0026
      7 C          -1.7676    3.4445   19.7564 C.ar    1  UNL1       -0.0122
      8 C          -1.3249    3.6658   18.3404 C.ar    1  UNL1       -0.0022
      9 C          -0.0323    3.0772   17.8581 C.ar    1  UNL1        0.0163
     10 C           0.8176    2.2673   18.7917 C.ar    1  UNL1        0.0730
     11 N           2.1103    1.6787   18.3094 N.am    1  UNL1       -0.1789
     12 C           0.7822    1.0149   22.5574 C.2     1  UNL1       -0.0037
     13 C           1.1691    1.9940   23.6258 C.2     1  UNL1       -0.0003
     14 C           0.7264    1.7727   25.0418 C.ar    1  UNL1       -0.0000
     15 C           1.6306    1.0674   26.0088 C.ar    1  UNL1       -0.0001
     16 C           1.1879    0.8461   27.4248 C.ar    1  UNL1        0.0039
     17 C          -0.1590    1.3301   27.8738 C.ar    1  UNL1        0.0714
     18 C          -1.0632    2.0354   26.9069 C.ar    1  UNL1        0.0039
     19 C          -0.6205    2.2567   25.4909 C.ar    1  UNL1       -0.0001
     20 C          -0.6017    1.1088   29.2898 C.3     1  UNL1        0.4186
     21 F          -1.0444    0.8876   30.7058 F       1  UNL1       -0.1659
     22 F           0.0824    2.3785   29.7021 F       1  UNL1       -0.1659
     23 F          -1.2858   -0.1608   28.8775 F       1  UNL1       -0.1659
     24 C          -3.0603    4.0331   20.2387 C.3     1  UNL1        0.0909
     25 C          -3.4000    4.0014   21.6994 C.ar    1  UNL1       -0.0122
     26 C          -2.5947    4.8082   22.6744 C.ar    1  UNL1       -0.0027
     27 C          -2.9344    4.7765   24.1351 C.ar    1  UNL1        0.0111
     28 C          -4.0794    3.9380   24.6208 C.ar    1  UNL1        0.0577
     29 CL         -4.4192    3.9062   26.0814 Cl      1  UNL1       -0.0822
     30 C          -4.8847    3.1312   23.6458 C.ar    1  UNL1        0.0111
     31 C          -4.5450    3.1629   22.1851 C.ar    1  UNL1       -0.0027
     32 C          -4.0132    4.6534   19.2604 C.ar    1  UNL1        0.0961
     33 N          -4.9551    3.9139   18.3571 N.ar    1  UNL1       -0.2405
     34 C          -5.7156    4.9255   17.5520 C.ar    1  UNL1        0.1061
     35 C          -5.2435    6.2904   17.9577 C.ar    1  UNL1        0.0572
     36 S          -4.1914    6.1221   19.0135 S.2     1  UNL1       -0.0696
@<TRIPOS>BOND
     1     1     2    2
     2     2     3    1
     3     3     4    1
     4     4    12    1
     5    12    13    2
     6    13    14    1
     7    14    15   ar
     8    15    16   ar
     9    16    17   ar
    10    17    20    1
    11    20    21    1
    12    20    22    1
    13    20    23    1
    14    17    18   ar
    15    18    19   ar
    16     4     5    2
    17     5     6   ar
    18     6     7   ar
    19     7    24    1
    20    24    25    1
    21    25    26   ar
    22    26    27   ar
    23    27    28   ar
    24    28    29    1
    25    28    30   ar
    26    30    31   ar
    27    24    32    1
    28    32    33   ar
    29    33    34   ar
    30    34    35   ar
    31    35    36   ar
    32     7     8   ar
    33     8     9   ar
    34     9    10   ar
    35    10    11    2
    36    11     2    1
    37    19    14   ar
    38    10     5   ar
    39    31    25   ar
    40    36    32   ar
