@<TRIPOS>MOLECULE
*****
 21 23 0 0 0
SMALL
GASTEIGER

@<TRIPOS>ATOM
      1 C          -8.9040  -19.3236   20.6549 C.ar    1  UNL1        0.1386
      2 C          -7.9754  -19.3580   19.4774 C.ar    1  UNL1        0.0384
      3 C          -6.4912  -19.3769   19.6930 C.ar    1  UNL1        0.0207
      4 C          -5.9355  -19.3613   21.0862 C.ar    1  UNL1        0.0657
      5 C          -6.8641  -19.3268   22.2637 C.ar    1  UNL1        0.0207
      6 C          -8.3483  -19.3080   22.0480 C.ar    1  UNL1        0.0384
      7 N          -4.4511  -19.3802   21.3018 N.ar    1  UNL1       -0.2864
      8 C          -3.6840  -18.4883   22.2325 C.ar    1  UNL1        0.1022
      9 C          -2.2321  -18.8511   22.1305 C.ar    1  UNL1        0.1196
     10 N          -2.1019  -19.9673   21.1369 N.ar    1  UNL1       -0.2220
     11 C          -3.4734  -20.2942   20.6247 C.ar    1  UNL1        0.1828
     12 O         -10.3884  -19.3047   20.4392 O.3     1  UNL1       -0.4755
     13 C         -11.0739  -18.0276   20.0531 C.3     1  UNL1        0.2057
     14 C         -12.2374  -17.5281   20.8573 C.3     1  UNL1        0.0520
     15 C         -11.9993  -16.7575   22.1220 C.3     1  UNL1        0.0303
     16 C         -10.7967  -19.3411   24.8841 C.ar    1  UNL1        0.0986
     17 C         -11.5871  -18.7250   23.7681 C.ar    1  UNL1        0.0164
     18 C         -11.2088  -17.3737   23.2382 C.ar    1  UNL1       -0.0190
     19 C         -10.0401  -16.6385   23.8243 C.ar    1  UNL1        0.0164
     20 C          -9.2497  -17.2546   24.9403 C.ar    1  UNL1        0.0986
     21 N          -9.6280  -18.6059   25.4703 N.ar    1  UNL1       -0.2423
@<TRIPOS>BOND
     1    16    17   ar
     2    17    18   ar
     3    18    15    1
     4    15    14    1
     5    14    13    1
     6    13    12    1
     7    12     1    1
     8     1     2   ar
     9     2     3   ar
    10     3     4   ar
    11     4     7    1
    12     7     8   ar
    13     8     9   ar
    14     9    10   ar
    15    10    11   ar
    16     4     5   ar
    17     5     6   ar
    18    18    19   ar
    19    19    20   ar
    20    20    21   ar
    21    21    16   ar
    22     6     1   ar
    23    11     7   ar
@<TRIPOS>MOLECULE
*****
 21 23 0 0 0
SMALL
GASTEIGER

@<TRIPOS>ATOM
      1 C          -8.8812  -19.5320   21.1749 C.ar    1  UNL1        0.1386
      2 C          -8.2361  -19.3943   19.8276 C.ar    1  UNL1        0.0384
      3 C          -6.7436  -19.2932   19.7175 C.ar    1  UNL1        0.0207
      4 C          -5.8962  -19.3297   20.9546 C.ar    1  UNL1        0.0657
      5 C          -6.5412  -19.4674   22.3018 C.ar    1  UNL1        0.0207
      6 C          -8.0337  -19.5685   22.4119 C.ar    1  UNL1        0.0384
      7 N          -4.4036  -19.2286   20.8445 N.ar    1  UNL1       -0.2864
      8 C          -3.6350  -18.8259   19.6210 C.ar    1  UNL1        0.1022
      9 C          -2.1740  -18.8608   19.9590 C.ar    1  UNL1        0.1196
     10 N          -2.0396  -19.2851   21.3915 N.ar    1  UNL1       -0.2220
     11 C          -3.4176  -19.5124   21.9387 C.ar    1  UNL1        0.1828
     12 O         -10.3737  -19.6331   21.2849 O.3     1  UNL1       -0.4755
     13 C         -11.2492  -18.7575   20.4383 C.3     1  UNL1        0.2057
     14 C         -11.7502  -17.4510   20.9788 C.3     1  UNL1        0.0520
     15 C         -10.8063  -16.2974   21.1466 C.3     1  UNL1        0.0303
     16 C          -9.2241  -16.8088   24.7501 C.ar    1  UNL1        0.0986
     17 C         -10.2153  -16.8091   23.6243 C.ar    1  UNL1        0.0164
     18 C          -9.8150  -16.2970   22.2725 C.ar    1  UNL1       -0.0190
     19 C          -8.4236  -15.7845   22.0464 C.ar    1  UNL1        0.0164
     20 C          -7.4324  -15.7842   23.1722 C.ar    1  UNL1        0.0986
     21 N          -7.8327  -16.2963   24.5241 N.ar    1  UNL1       -0.2423
@<TRIPOS>BOND
     1    16    17   ar
     2    17    18   ar
     3    18    15    1
     4    15    14    1
     5    14    13    1
     6    13    12    1
     7    12     1    1
     8     1     2   ar
     9     2     3   ar
    10     3     4   ar
    11     4     7    1
    12     7     8   ar
    13     8     9   ar
    14     9    10   ar
    15    10    11   ar
    16     4     5   ar
    17     5     6   ar
    18    18    19   ar
    19    19    20   ar
    20    20    21   ar
    21    21    16   ar
    22     6     1   ar
    23    11     7   ar
@<TRIPOS>MOLECULE
*****
 21 23 0 0 0
SMALL
GASTEIGER

@<TRIPOS>ATOM
      1 C          -8.5105  -19.0686   20.4106 C.ar    1  UNL1        0.1386
      2 C          -8.2966  -18.4460   21.7583 C.ar    1  UNL1        0.0384
      3 C          -9.4531  -18.2768   22.6984 C.ar    1  UNL1        0.0207
      4 C         -10.8235  -18.7302   22.2908 C.ar    1  UNL1        0.0657
      5 C         -11.0375  -19.3528   20.9430 C.ar    1  UNL1        0.0207
      6 C          -9.8810  -19.5221   20.0029 C.ar    1  UNL1        0.0384
      7 N         -11.9801  -18.5610   23.2309 N.ar    1  UNL1       -0.2864
      8 C         -13.3055  -17.9435   22.8960 C.ar    1  UNL1        0.1022
      9 C         -14.1588  -17.9804   24.1291 C.ar    1  UNL1        0.1196
     10 N         -13.3608  -18.6208   25.2261 N.ar    1  UNL1       -0.2220
     11 C         -12.0143  -18.9795   24.6709 C.ar    1  UNL1        0.1828
     12 O          -7.3539  -19.2379   19.4704 O.3     1  UNL1       -0.4755
     13 C          -5.9485  -19.1546   19.9879 C.3     1  UNL1        0.2057
     14 C          -5.1965  -20.4088   20.3213 C.3     1  UNL1        0.0520
     15 C          -3.7011  -20.3788   20.4354 C.3     1  UNL1        0.0303
     16 C          -1.4177  -17.1858   19.8520 C.ar    1  UNL1        0.0986
     17 C          -2.1254  -18.4857   19.6087 C.ar    1  UNL1        0.0164
     18 C          -2.9934  -19.0788   20.6787 C.ar    1  UNL1       -0.0190
     19 C          -3.1537  -18.3719   21.9919 C.ar    1  UNL1        0.0164
     20 C          -2.4460  -17.0719   22.2352 C.ar    1  UNL1        0.0986
     21 N          -1.5780  -16.4789   21.1652 N.ar    1  UNL1       -0.2423
@<TRIPOS>BOND
     1    16    17   ar
     2    17    18   ar
     3    18    15    1
     4    15    14    1
     5    14    13    1
     6    13    12    1
     7    12     1    1
     8     1     2   ar
     9     2     3   ar
    10     3     4   ar
    11     4     7    1
    12     7     8   ar
    13     8     9   ar
    14     9    10   ar
    15    10    11   ar
    16     4     5   ar
    17     5     6   ar
    18    18    19   ar
    19    19    20   ar
    20    20    21   ar
    21    21    16   ar
    22     6     1   ar
    23    11     7   ar
@<TRIPOS>MOLECULE
*****
 21 23 0 0 0
SMALL
GASTEIGER

@<TRIPOS>ATOM
      1 C          -7.2596  -15.3924   24.3591 C.ar    1  UNL1        0.1386
      2 C          -7.3718  -15.1948   22.8765 C.ar    1  UNL1        0.0384
      3 C          -8.6035  -15.6484   22.1505 C.ar    1  UNL1        0.0207
      4 C          -9.7230  -16.2997   22.9072 C.ar    1  UNL1        0.0657
      5 C          -9.6107  -16.4974   24.3899 C.ar    1  UNL1        0.0207
      6 C          -8.3790  -16.0437   25.1159 C.ar    1  UNL1        0.0384
      7 N         -10.9547  -16.7534   22.1812 N.ar    1  UNL1       -0.2864
      8 C         -11.8928  -17.8355   22.6274 C.ar    1  UNL1        0.1022
      9 C         -12.9825  -17.9555   21.6036 C.ar    1  UNL1        0.1196
     10 N         -12.7179  -16.9475   20.5246 N.ar    1  UNL1       -0.2220
     11 C         -11.4647  -16.2046   20.8817 C.ar    1  UNL1        0.1828
     12 O          -6.0278  -14.9387   25.0851 O.3     1  UNL1       -0.4755
     13 C          -4.7663  -15.7457   24.9987 C.3     1  UNL1        0.2057
     14 C          -4.4192  -16.4610   23.7268 C.3     1  UNL1        0.0520
     15 C          -3.9125  -17.8720   23.7740 C.3     1  UNL1        0.0303
     16 C          -2.9521  -20.0679   20.6108 C.ar    1  UNL1        0.0986
     17 C          -2.8204  -19.1830   21.8148 C.ar    1  UNL1        0.0164
     18 C          -4.0443  -18.7570   22.5700 C.ar    1  UNL1       -0.0190
     19 C          -5.4001  -19.2159   22.1213 C.ar    1  UNL1        0.0164
     20 C          -5.5318  -20.1008   20.9174 C.ar    1  UNL1        0.0986
     21 N          -4.3078  -20.5268   20.1621 N.ar    1  UNL1       -0.2423
@<TRIPOS>BOND
     1    16    17   ar
     2    17    18   ar
     3    18    15    1
     4    15    14    1
     5    14    13    1
     6    13    12    1
     7    12     1    1
     8     1     2   ar
     9     2     3   ar
    10     3     4   ar
    11     4     7    1
    12     7     8   ar
    13     8     9   ar
    14     9    10   ar
    15    10    11   ar
    16     4     5   ar
    17     5     6   ar
    18    18    19   ar
    19    19    20   ar
    20    20    21   ar
    21    21    16   ar
    22     6     1   ar
    23    11     7   ar
@<TRIPOS>MOLECULE
*****
 21 23 0 0 0
SMALL
GASTEIGER

@<TRIPOS>ATOM
      1 C         -13.1170   -3.3686   18.5442 C.ar    1  UNL1        0.1386
      2 C         -14.0105   -3.8741   17.4505 C.ar    1  UNL1        0.0384
      3 C         -14.6131   -5.2443   17.5474 C.ar    1  UNL1        0.0207
      4 C         -14.3223   -6.1090   18.7380 C.ar    1  UNL1        0.0657
      5 C         -13.4288   -5.6035   19.8317 C.ar    1  UNL1        0.0207
      6 C         -12.8262   -4.2333   19.7348 C.ar    1  UNL1        0.0384
      7 N         -14.9249   -7.4792   18.8350 N.ar    1  UNL1       -0.2864
      8 C         -16.1819   -7.8396   19.5698 C.ar    1  UNL1        0.1022
      9 C         -16.4102   -9.3127   19.4031 C.ar    1  UNL1        0.1196
     10 N         -15.2942   -9.8628   18.5652 N.ar    1  UNL1       -0.2220
     11 C         -14.3762   -8.7296   18.2141 C.ar    1  UNL1        0.1828
     12 O         -12.5144   -1.9984   18.4472 O.3     1  UNL1       -0.4755
     13 C         -11.0538   -1.8412   18.1441 C.3     1  UNL1        0.2057
     14 C         -10.5068   -2.3063   16.8272 C.3     1  UNL1        0.0520
     15 C          -9.5512   -3.4616   16.7779 C.3     1  UNL1        0.0303
     16 C         -10.0146   -6.8313   18.8224 C.ar    1  UNL1        0.0986
     17 C          -9.5499   -5.4569   18.4419 C.ar    1  UNL1        0.0164
     18 C         -10.0160   -4.8361   17.1584 C.ar    1  UNL1       -0.0190
     19 C         -10.9470   -5.5897   16.2555 C.ar    1  UNL1        0.0164
     20 C         -11.4117   -6.9642   16.6360 C.ar    1  UNL1        0.0986
     21 N         -10.9455   -7.5850   17.9195 N.ar    1  UNL1       -0.2423
@<TRIPOS>BOND
     1    16    17   ar
     2    17    18   ar
     3    18    15    1
     4    15    14    1
     5    14    13    1
     6    13    12    1
     7    12     1    1
     8     1     2   ar
     9     2     3   ar
    10     3     4   ar
    11     4     7    1
    12     7     8   ar
    13     8     9   ar
    14     9    10   ar
    15    10    11   ar
    16     4     5   ar
    17     5     6   ar
    18    18    19   ar
    19    19    20   ar
    20    20    21   ar
    21    21    16   ar
    22     6     1   ar
    23    11     7   ar
@<TRIPOS>MOLECULE
*****
 21 23 0 0 0
SMALL
GASTEIGER

@<TRIPOS>ATOM
      1 C          -7.2462  -15.4062   23.8227 C.ar    1  UNL1        0.1386
      2 C          -8.1562  -15.9843   24.8656 C.ar    1  UNL1        0.0384
      3 C          -9.4942  -16.5358   24.4712 C.ar    1  UNL1        0.0207
      4 C          -9.9222  -16.5091   23.0339 C.ar    1  UNL1        0.0657
      5 C          -9.0122  -15.9310   21.9909 C.ar    1  UNL1        0.0207
      6 C          -7.6742  -15.3795   22.3853 C.ar    1  UNL1        0.0384
      7 N         -11.2603  -17.0606   22.6394 N.ar    1  UNL1       -0.2864
      8 C         -12.1875  -17.8411   23.5230 C.ar    1  UNL1        0.1022
      9 C         -13.4063  -18.1912   22.7218 C.ar    1  UNL1        0.1196
     10 N         -13.2322  -17.6270   21.3428 N.ar    1  UNL1       -0.2220
     11 C         -11.9059  -16.9283   21.2919 C.ar    1  UNL1        0.1828
     12 O          -5.9081  -14.8548   24.2172 O.3     1  UNL1       -0.4755
     13 C          -4.6530  -15.5651   23.8047 C.3     1  UNL1        0.2057
     14 C          -4.6433  -17.0599   23.6809 C.3     1  UNL1        0.0520
     15 C          -3.3684  -17.7766   23.3479 C.3     1  UNL1        0.0303
     16 C          -1.4757  -16.9336   19.9631 C.ar    1  UNL1        0.0986
     17 C          -1.9382  -16.8486   21.3874 C.ar    1  UNL1        0.0164
     18 C          -2.9059  -17.8616   21.9235 C.ar    1  UNL1       -0.0190
     19 C          -3.4110  -18.9597   21.0352 C.ar    1  UNL1        0.0164
     20 C          -2.9485  -19.0446   19.6108 C.ar    1  UNL1        0.0986
     21 N          -1.9808  -18.0316   19.0748 N.ar    1  UNL1       -0.2423
@<TRIPOS>BOND
     1    16    17   ar
     2    17    18   ar
     3    18    15    1
     4    15    14    1
     5    14    13    1
     6    13    12    1
     7    12     1    1
     8     1     2   ar
     9     2     3   ar
    10     3     4   ar
    11     4     7    1
    12     7     8   ar
    13     8     9   ar
    14     9    10   ar
    15    10    11   ar
    16     4     5   ar
    17     5     6   ar
    18    18    19   ar
    19    19    20   ar
    20    20    21   ar
    21    21    16   ar
    22     6     1   ar
    23    11     7   ar
@<TRIPOS>MOLECULE
*****
 21 23 0 0 0
SMALL
GASTEIGER

@<TRIPOS>ATOM
      1 C         -13.7781   -2.9340   19.0621 C.ar    1  UNL1        0.1386
      2 C         -13.4126   -3.8483   20.1938 C.ar    1  UNL1        0.0384
      3 C         -13.8039   -5.2955   20.1451 C.ar    1  UNL1        0.0207
      4 C         -14.5605   -5.8285   18.9647 C.ar    1  UNL1        0.0657
      5 C         -14.9259   -4.9143   17.8330 C.ar    1  UNL1        0.0207
      6 C         -14.5347   -3.4670   17.8817 C.ar    1  UNL1        0.0384
      7 N         -14.9518   -7.2758   18.9159 N.ar    1  UNL1       -0.2864
      8 C         -16.2205   -7.8649   19.4575 C.ar    1  UNL1        0.1022
      9 C         -16.1958   -9.3412   19.1933 C.ar    1  UNL1        0.1196
     10 N         -14.9118   -9.6646   18.4884 N.ar    1  UNL1       -0.2220
     11 C         -14.1430   -8.3881   18.3170 C.ar    1  UNL1        0.1828
     12 O         -13.3868   -1.4867   19.1109 O.3     1  UNL1       -0.4755
     13 C         -12.1023   -1.0355   18.4814 C.3     1  UNL1        0.2057
     14 C         -10.9068   -1.9414   18.4843 C.3     1  UNL1        0.0520
     15 C         -10.6927   -2.9044   17.3543 C.3     1  UNL1        0.0303
     16 C         -11.2213   -6.8214   16.9972 C.ar    1  UNL1        0.0986
     17 C         -11.3041   -5.3492   16.7224 C.ar    1  UNL1        0.0164
     18 C         -10.6099   -4.3767   17.6292 C.ar    1  UNL1       -0.0190
     19 C          -9.8328   -4.8765   18.8108 C.ar    1  UNL1        0.0164
     20 C          -9.7500   -6.3488   19.0857 C.ar    1  UNL1        0.0986
     21 N         -10.4443   -7.3212   18.1789 N.ar    1  UNL1       -0.2423
@<TRIPOS>BOND
     1    16    17   ar
     2    17    18   ar
     3    18    15    1
     4    15    14    1
     5    14    13    1
     6    13    12    1
     7    12     1    1
     8     1     2   ar
     9     2     3   ar
    10     3     4   ar
    11     4     7    1
    12     7     8   ar
    13     8     9   ar
    14     9    10   ar
    15    10    11   ar
    16     4     5   ar
    17     5     6   ar
    18    18    19   ar
    19    19    20   ar
    20    20    21   ar
    21    21    16   ar
    22     6     1   ar
    23    11     7   ar
@<TRIPOS>MOLECULE
*****
 21 23 0 0 0
SMALL
GASTEIGER

@<TRIPOS>ATOM
      1 C          -7.7654  -15.7585   25.0225 C.ar    1  UNL1        0.1386
      2 C          -8.9386  -16.6800   25.1787 C.ar    1  UNL1        0.0384
      3 C          -9.7926  -17.0146   23.9919 C.ar    1  UNL1        0.0207
      4 C          -9.4735  -16.4276   22.6489 C.ar    1  UNL1        0.0657
      5 C          -8.3003  -15.5061   22.4927 C.ar    1  UNL1        0.0207
      6 C          -7.4462  -15.1715   23.6796 C.ar    1  UNL1        0.0384
      7 N         -10.3276  -16.7622   21.4620 N.ar    1  UNL1       -0.2864
      8 C         -11.2400  -15.8172   20.7379 C.ar    1  UNL1        0.1022
      9 C         -11.8955  -16.5715   19.6192 C.ar    1  UNL1        0.1196
     10 N         -11.3882  -17.9827   19.6520 N.ar    1  UNL1       -0.2220
     11 C         -10.4192  -18.1006   20.7909 C.ar    1  UNL1        0.1828
     12 O          -6.9113  -15.4239   26.2094 O.3     1  UNL1       -0.4755
     13 C          -5.4169  -15.4159   26.0797 C.3     1  UNL1        0.2057
     14 C          -4.7228  -16.5180   25.3357 C.3     1  UNL1        0.0520
     15 C          -4.3250  -16.3210   23.9029 C.3     1  UNL1        0.0303
     16 C          -4.5894  -19.6268   21.7231 C.ar    1  UNL1        0.0986
     17 C          -4.9823  -18.4467   22.5613 C.ar    1  UNL1        0.0164
     18 C          -3.9321  -17.5013   23.0646 C.ar    1  UNL1       -0.0190
     19 C          -2.4890  -17.7361   22.7296 C.ar    1  UNL1        0.0164
     20 C          -2.0961  -18.9163   21.8913 C.ar    1  UNL1        0.0986
     21 N          -3.1464  -19.8617   21.3880 N.ar    1  UNL1       -0.2423
@<TRIPOS>BOND
     1    16    17   ar
     2    17    18   ar
     3    18    15    1
     4    15    14    1
     5    14    13    1
     6    13    12    1
     7    12     1    1
     8     1     2   ar
     9     2     3   ar
    10     3     4   ar
    11     4     7    1
    12     7     8   ar
    13     8     9   ar
    14     9    10   ar
    15    10    11   ar
    16     4     5   ar
    17     5     6   ar
    18    18    19   ar
    19    19    20   ar
    20    20    21   ar
    21    21    16   ar
    22     6     1   ar
    23    11     7   ar
@<TRIPOS>MOLECULE
*****
 21 23 0 0 0
SMALL
GASTEIGER

@<TRIPOS>ATOM
      1 C         -11.4788   -4.7238   17.5675 C.ar    1  UNL1        0.1386
      2 C         -12.7926   -4.7305   16.8438 C.ar    1  UNL1        0.0384
      3 C         -13.8470   -5.7315   17.2128 C.ar    1  UNL1        0.0207
      4 C         -13.5876   -6.7258   18.3055 C.ar    1  UNL1        0.0657
      5 C         -12.2737   -6.7191   19.0292 C.ar    1  UNL1        0.0207
      6 C         -11.2193   -5.7181   18.6602 C.ar    1  UNL1        0.0384
      7 N         -14.6420   -7.7268   18.6746 N.ar    1  UNL1       -0.2864
      8 C         -15.8820   -7.4482   19.4712 C.ar    1  UNL1        0.1022
      9 C         -16.6479   -8.7314   19.6007 C.ar    1  UNL1        0.1196
     10 N         -15.8811   -9.8032   18.8842 N.ar    1  UNL1       -0.2220
     11 C         -14.6414   -9.1823   18.3118 C.ar    1  UNL1        0.1828
     12 O         -10.4243   -3.7227   17.1984 O.3     1  UNL1       -0.4755
     13 C         -10.7388   -2.2564   17.2293 C.3     1  UNL1        0.2057
     14 C         -11.1810   -1.6109   18.5090 C.3     1  UNL1        0.0520
     15 C         -12.6075   -1.1786   18.6771 C.3     1  UNL1        0.0303
     16 C         -14.3008   -4.0354   20.8499 C.ar    1  UNL1        0.0986
     17 C         -13.2801   -3.0673   20.3295 C.ar    1  UNL1        0.0164
     18 C         -13.6283   -2.1467   19.1975 C.ar    1  UNL1       -0.0190
     19 C         -14.9971   -2.1942   18.5860 C.ar    1  UNL1        0.0164
     20 C         -16.0178   -3.1623   19.1064 C.ar    1  UNL1        0.0986
     21 N         -15.6697   -4.0829   20.2384 N.ar    1  UNL1       -0.2423
@<TRIPOS>BOND
     1    16    17   ar
     2    17    18   ar
     3    18    15    1
     4    15    14    1
     5    14    13    1
     6    13    12    1
     7    12     1    1
     8     1     2   ar
     9     2     3   ar
    10     3     4   ar
    11     4     7    1
    12     7     8   ar
    13     8     9   ar
    14     9    10   ar
    15    10    11   ar
    16     4     5   ar
    17     5     6   ar
    18    18    19   ar
    19    19    20   ar
    20    20    21   ar
    21    21    16   ar
    22     6     1   ar
    23    11     7   ar
