@<TRIPOS>MOLECULE
*****
 30 33 0 0 0
SMALL
GASTEIGER

@<TRIPOS>ATOM
      1 C          -6.8161  -18.8853   20.7289 C.ar    1  UNL1        0.0686
      2 C          -7.6700  -19.6581   19.7678 C.ar    1  UNL1        0.1045
      3 N          -9.1630  -19.5206   19.8132 N.ar    1  UNL1       -0.2290
      4 C          -9.8021  -18.6104   20.8198 C.ar    1  UNL1        0.1319
      5 C          -8.9482  -17.8376   21.7808 C.ar    1  UNL1        0.0303
      6 C          -7.4551  -17.9751   21.7354 C.ar    1  UNL1       -0.0138
      7 O          -4.5579  -18.5055   19.5015 O.2     1  UNL1       -0.2701
      8 C          -5.3231  -19.0228   20.6835 C.2     1  UNL1        0.2471
      9 N          -4.5953  -19.6774   21.8200 N.am    1  UNL1       -0.3008
     10 H          -5.0975  -20.0169   22.5958 H       1  UNL1        0.1497
     11 C          -3.1023  -19.8149   21.7746 C.3     1  UNL1        0.0898
     12 C          -2.2567  -18.6637   21.3165 C.3     1  UNL1        0.0246
     13 C          -1.2468  -18.8625   20.2254 C.3     1  UNL1        0.0338
     14 C          -0.4013  -17.7113   19.7673 C.3     1  UNL1        0.1422
     15 O          -0.5656  -16.3614   20.4004 O.3     1  UNL1       -0.3538
     16 C          -1.5755  -16.1627   21.4915 C.3     1  UNL1        0.1422
     17 C          -2.4210  -17.3138   21.9496 C.3     1  UNL1        0.0338
     18 C          -6.6012  -17.2023   22.6964 C.3     1  UNL1        0.0226
     19 C          -6.3680  -15.9798   23.5337 C.3     1  UNL1        0.0047
     20 C          -5.3554  -17.0864   23.5237 C.3     1  UNL1        0.0047
     21 N         -11.2951  -18.4729   20.8652 N.pl3   1  UNL1       -0.2973
     22 H         -11.8068  -18.3839   20.0289 H       1  UNL1        0.1536
     23 C         -12.0083  -18.4711   22.1848 C.ar    1  UNL1        0.0601
     24 C         -13.2082  -17.5942   22.3875 C.ar    1  UNL1        0.0164
     25 C         -13.9215  -17.5924   23.7071 C.ar    1  UNL1        0.0127
     26 C         -13.4347  -18.4674   24.8239 C.ar    1  UNL1        0.0586
     27 CL        -14.1479  -18.4656   26.1435 Cl      1  UNL1       -0.0822
     28 C         -12.2348  -19.3443   24.6212 C.ar    1  UNL1        0.0240
     29 C         -11.5215  -19.3461   23.3016 C.ar    1  UNL1        0.0719
     30 CL        -10.3215  -20.2230   23.0989 Cl      1  UNL1       -0.0809
@<TRIPOS>BOND
     1     7     8    2
     2     8     9   am
     3     9    11    1
     4    11    12    1
     5    12    13    1
     6    13    14    1
     7    14    15    1
     8    15    16    1
     9    16    17    1
    10     8     1    1
    11     1     2   ar
    12     2     3   ar
    13     3     4   ar
    14     4    21    1
    15    21    23    1
    16    23    24   ar
    17    24    25   ar
    18    25    26   ar
    19    26    27    1
    20    26    28   ar
    21    28    29   ar
    22    29    30    1
    23     4     5   ar
    24     5     6   ar
    25     6    18    1
    26    18    19    1
    27    19    20    1
    28    17    12    1
    29     6     1   ar
    30    20    18    1
    31    29    23   ar
    32     9    10    1
    33    21    22    1
@<TRIPOS>MOLECULE
*****
 30 33 0 0 0
SMALL
GASTEIGER

@<TRIPOS>ATOM
      1 C         -13.7839   -0.9568   18.5849 C.ar    1  UNL1        0.0686
      2 C         -13.8177    0.4586   18.0897 C.ar    1  UNL1        0.1045
      3 N         -14.9021    1.3880   18.5484 N.ar    1  UNL1       -0.2290
      4 C         -15.9526    0.9019   19.5024 C.ar    1  UNL1        0.1319
      5 C         -15.9188   -0.5136   19.9976 C.ar    1  UNL1        0.0303
      6 C         -14.8344   -1.4430   19.5388 C.ar    1  UNL1       -0.0138
      7 O         -12.7299   -2.4453   16.7346 O.2     1  UNL1       -0.2701
      8 C         -12.6996   -1.8862   18.1262 C.2     1  UNL1        0.2471
      9 N         -11.5848   -2.2566   19.0591 N.am    1  UNL1       -0.3008
     10 H         -11.5649   -1.8896   19.9724 H       1  UNL1        0.1497
     11 C         -10.5005   -3.1859   18.6003 C.3     1  UNL1        0.0898
     12 C         -10.6843   -4.6699   18.7196 C.3     1  UNL1        0.0246
     13 C         -12.0578   -5.2654   18.6255 C.3     1  UNL1        0.0338
     14 C         -12.2416   -6.7493   18.7448 C.3     1  UNL1        0.1422
     15 O         -11.0519   -7.6376   18.9582 O.3     1  UNL1       -0.3538
     16 C          -9.6785   -7.0421   19.0524 C.3     1  UNL1        0.1422
     17 C          -9.4947   -5.5582   18.9331 C.3     1  UNL1        0.0338
     18 C         -14.8006   -2.8585   20.0341 C.3     1  UNL1        0.0226
     19 C         -14.2518   -3.8946   20.9696 C.3     1  UNL1        0.0047
     20 C         -15.2907   -4.2740   19.9563 C.3     1  UNL1        0.0047
     21 N         -17.0370    1.8312   19.9611 N.pl3   1  UNL1       -0.2973
     22 H         -17.8592    1.9293   19.4285 H       1  UNL1        0.1536
     23 C         -16.8687    2.6112   21.2313 C.ar    1  UNL1        0.0601
     24 C         -17.3843    2.0563   22.5260 C.ar    1  UNL1        0.0164
     25 C         -17.2160    2.8362   23.7962 C.ar    1  UNL1        0.0127
     26 C         -16.5321    4.1710   23.7717 C.ar    1  UNL1        0.0586
     27 CL        -16.3638    4.9509   25.0419 Cl      1  UNL1       -0.0822
     28 C         -16.0165    4.7259   22.4770 C.ar    1  UNL1        0.0240
     29 C         -16.1848    3.9459   21.2068 C.ar    1  UNL1        0.0719
     30 CL        -15.6692    4.5009   19.9120 Cl      1  UNL1       -0.0809
@<TRIPOS>BOND
     1     7     8    2
     2     8     9   am
     3     9    11    1
     4    11    12    1
     5    12    13    1
     6    13    14    1
     7    14    15    1
     8    15    16    1
     9    16    17    1
    10     8     1    1
    11     1     2   ar
    12     2     3   ar
    13     3     4   ar
    14     4    21    1
    15    21    23    1
    16    23    24   ar
    17    24    25   ar
    18    25    26   ar
    19    26    27    1
    20    26    28   ar
    21    28    29   ar
    22    29    30    1
    23     4     5   ar
    24     5     6   ar
    25     6    18    1
    26    18    19    1
    27    19    20    1
    28    17    12    1
    29     6     1   ar
    30    20    18    1
    31    29    23   ar
    32     9    10    1
    33    21    22    1
@<TRIPOS>MOLECULE
*****
 30 33 0 0 0
SMALL
GASTEIGER

@<TRIPOS>ATOM
      1 C           6.5926   -2.0943   19.5858 C.ar    1  UNL1        0.0686
      2 C           7.8174   -1.3894   20.0887 C.ar    1  UNL1        0.1045
      3 N           8.7751   -2.1041   20.9953 N.ar    1  UNL1       -0.2290
      4 C           8.5080   -3.5239   21.3990 C.ar    1  UNL1        0.1319
      5 C           7.2832   -4.2289   20.8962 C.ar    1  UNL1        0.0303
      6 C           6.3255   -3.5140   19.9896 C.ar    1  UNL1       -0.0138
      7 O           5.9222   -1.2840   17.2101 O.2     1  UNL1       -0.2701
      8 C           5.6349   -1.3796   18.6793 C.2     1  UNL1        0.2471
      9 N           4.3899   -0.7603   19.2418 N.am    1  UNL1       -0.3008
     10 H           4.2013   -0.8230   20.2060 H       1  UNL1        0.1497
     11 C           3.4322   -0.0455   18.3352 C.3     1  UNL1        0.0898
     12 C           2.1894    0.5776   18.8985 C.3     1  UNL1        0.0246
     13 C           1.3826   -0.1566   19.9280 C.3     1  UNL1        0.0338
     14 C           0.1398    0.4665   20.4911 C.3     1  UNL1        0.1422
     15 O          -0.2962    1.8239   20.0248 O.3     1  UNL1       -0.3538
     16 C           0.5106    2.5581   18.9952 C.3     1  UNL1        0.1422
     17 C           1.7534    1.9350   18.4321 C.3     1  UNL1        0.0338
     18 C           5.1007   -4.2190   19.4867 C.3     1  UNL1        0.0226
     19 C           4.4729   -5.3314   18.7004 C.3     1  UNL1        0.0047
     20 C           3.6070   -4.3275   19.4021 C.3     1  UNL1        0.0047
     21 N           9.4657   -4.2387   22.3056 N.pl3   1  UNL1       -0.2973
     22 H          10.4328   -4.0697   22.2317 H       1  UNL1        0.1536
     23 C           8.9500   -5.2109   23.3248 C.ar    1  UNL1        0.0601
     24 C           9.0998   -6.6859   23.0973 C.ar    1  UNL1        0.0164
     25 C           8.5841   -7.6582   24.1165 C.ar    1  UNL1        0.0127
     26 C           7.9185   -7.1554   25.3632 C.ar    1  UNL1        0.0586
     27 CL          7.4028   -8.1277   26.3824 Cl      1  UNL1       -0.0822
     28 C           7.7687   -5.6804   25.5906 C.ar    1  UNL1        0.0240
     29 C           8.2844   -4.7081   24.5714 C.ar    1  UNL1        0.0719
     30 CL          8.1345   -3.2330   24.7990 Cl      1  UNL1       -0.0809
@<TRIPOS>BOND
     1     7     8    2
     2     8     9   am
     3     9    11    1
     4    11    12    1
     5    12    13    1
     6    13    14    1
     7    14    15    1
     8    15    16    1
     9    16    17    1
    10     8     1    1
    11     1     2   ar
    12     2     3   ar
    13     3     4   ar
    14     4    21    1
    15    21    23    1
    16    23    24   ar
    17    24    25   ar
    18    25    26   ar
    19    26    27    1
    20    26    28   ar
    21    28    29   ar
    22    29    30    1
    23     4     5   ar
    24     5     6   ar
    25     6    18    1
    26    18    19    1
    27    19    20    1
    28    17    12    1
    29     6     1   ar
    30    20    18    1
    31    29    23   ar
    32     9    10    1
    33    21    22    1
@<TRIPOS>MOLECULE
*****
 30 33 0 0 0
SMALL
GASTEIGER

@<TRIPOS>ATOM
      1 C           7.0934   -2.1258   19.8042 C.ar    1  UNL1        0.0686
      2 C           8.4114   -1.7617   20.4208 C.ar    1  UNL1        0.1045
      3 N           9.0143   -2.6410   21.4759 N.ar    1  UNL1       -0.2290
      4 C           8.2992   -3.8846   21.9144 C.ar    1  UNL1        0.1319
      5 C           6.9812   -4.2488   21.2977 C.ar    1  UNL1        0.0303
      6 C           6.3783   -3.3693   20.2426 C.ar    1  UNL1       -0.0138
      7 O           6.6602   -1.5905   17.2991 O.2     1  UNL1       -0.2701
      8 C           6.4905   -1.2465   18.7492 C.2     1  UNL1        0.2471
      9 N           5.7177   -0.0229   19.1442 N.am    1  UNL1       -0.3008
     10 H           5.6063    0.2029   20.0960 H       1  UNL1        0.1497
     11 C           5.1148    0.8564   18.0892 C.3     1  UNL1        0.0898
     12 C           3.6890    1.3059   18.2123 C.3     1  UNL1        0.0246
     13 C           3.3710    2.7665   18.3358 C.3     1  UNL1        0.0338
     14 C           1.9453    3.2159   18.4588 C.3     1  UNL1        0.1422
     15 O           0.8374    2.2046   18.4584 O.3     1  UNL1       -0.3538
     16 C           1.1554    0.7440   18.3349 C.3     1  UNL1        0.1422
     17 C           2.5811    0.2946   18.2119 C.3     1  UNL1        0.0338
     18 C           5.0603   -3.7335   19.6260 C.3     1  UNL1        0.0226
     19 C           4.2189   -4.6820   18.8245 C.3     1  UNL1        0.0047
     20 C           3.6188   -3.4157   19.3595 C.3     1  UNL1        0.0047
     21 N           8.9021   -4.7640   22.9694 N.pl3   1  UNL1       -0.2973
     22 H           9.7518   -5.2298   22.7954 H       1  UNL1        0.1536
     23 C           8.2105   -4.9336   24.2896 C.ar    1  UNL1        0.0601
     24 C           7.7995   -3.7278   25.0813 C.ar    1  UNL1        0.0164
     25 C           7.1078   -3.8974   26.4015 C.ar    1  UNL1        0.0127
     26 C           6.8272   -5.2729   26.9299 C.ar    1  UNL1        0.0586
     27 CL          6.1356   -5.4425   28.2501 Cl      1  UNL1       -0.0822
     28 C           7.2382   -6.4787   26.1381 C.ar    1  UNL1        0.0240
     29 C           7.9299   -6.3091   24.8180 C.ar    1  UNL1        0.0719
     30 CL          8.3409   -7.5151   24.0262 Cl      1  UNL1       -0.0809
@<TRIPOS>BOND
     1     7     8    2
     2     8     9   am
     3     9    11    1
     4    11    12    1
     5    12    13    1
     6    13    14    1
     7    14    15    1
     8    15    16    1
     9    16    17    1
    10     8     1    1
    11     1     2   ar
    12     2     3   ar
    13     3     4   ar
    14     4    21    1
    15    21    23    1
    16    23    24   ar
    17    24    25   ar
    18    25    26   ar
    19    26    27    1
    20    26    28   ar
    21    28    29   ar
    22    29    30    1
    23     4     5   ar
    24     5     6   ar
    25     6    18    1
    26    18    19    1
    27    19    20    1
    28    17    12    1
    29     6     1   ar
    30    20    18    1
    31    29    23   ar
    32     9    10    1
    33    21    22    1
@<TRIPOS>MOLECULE
*****
 30 33 0 0 0
SMALL
GASTEIGER

@<TRIPOS>ATOM
      1 C         -15.5628   -2.2572   19.1755 C.ar    1  UNL1        0.0686
      2 C         -16.9742   -2.1659   19.6752 C.ar    1  UNL1        0.1045
      3 N         -17.5880   -0.8247   19.9478 N.ar    1  UNL1       -0.2290
      4 C         -16.7904    0.4253   19.7209 C.ar    1  UNL1        0.1319
      5 C         -15.3790    0.3340   19.2212 C.ar    1  UNL1        0.0303
      6 C         -14.7652   -1.0073   18.9485 C.ar    1  UNL1       -0.0138
      7 O         -15.0426   -4.2015   17.5325 O.2     1  UNL1       -0.2701
      8 C         -14.9490   -3.5984   18.9028 C.2     1  UNL1        0.2471
      9 N         -14.2415   -4.3366   20.0004 N.am    1  UNL1       -0.3008
     10 H         -14.1800   -3.9408   20.8997 H       1  UNL1        0.1497
     11 C         -13.6277   -5.6778   19.7277 C.3     1  UNL1        0.0898
     12 C         -12.2338   -5.7675   19.1807 C.3     1  UNL1        0.0246
     13 C         -11.3694   -4.5428   19.1258 C.3     1  UNL1        0.0338
     14 C          -9.9756   -4.6326   18.5789 C.3     1  UNL1        0.1422
     15 O          -9.4461   -5.9469   18.0869 O.3     1  UNL1       -0.3538
     16 C         -10.3105   -7.1716   18.1418 C.3     1  UNL1        0.1422
     17 C         -11.7043   -7.0819   18.6887 C.3     1  UNL1        0.0338
     18 C         -13.3538   -1.0986   18.4488 C.3     1  UNL1        0.0226
     19 C         -11.8788   -0.9807   18.6942 C.3     1  UNL1        0.0047
     20 C         -12.3844   -1.3746   17.3380 C.3     1  UNL1        0.0047
     21 N         -17.4042    1.7665   19.9936 N.pl3   1  UNL1       -0.2973
     22 H         -18.0869    2.1286   19.3836 H       1  UNL1        0.1536
     23 C         -16.9779    2.5560   21.1956 C.ar    1  UNL1        0.0601
     24 C         -17.5288    2.2175   22.5491 C.ar    1  UNL1        0.0164
     25 C         -17.1025    3.0070   23.7512 C.ar    1  UNL1        0.0127
     26 C         -16.1254    4.1349   23.5998 C.ar    1  UNL1        0.0586
     27 CL        -15.6991    4.9244   24.8019 Cl      1  UNL1       -0.0822
     28 C         -15.5745    4.4734   22.2463 C.ar    1  UNL1        0.0240
     29 C         -16.0008    3.6839   21.0442 C.ar    1  UNL1        0.0719
     30 CL        -15.4499    4.0224   19.6907 Cl      1  UNL1       -0.0809
@<TRIPOS>BOND
     1     7     8    2
     2     8     9   am
     3     9    11    1
     4    11    12    1
     5    12    13    1
     6    13    14    1
     7    14    15    1
     8    15    16    1
     9    16    17    1
    10     8     1    1
    11     1     2   ar
    12     2     3   ar
    13     3     4   ar
    14     4    21    1
    15    21    23    1
    16    23    24   ar
    17    24    25   ar
    18    25    26   ar
    19    26    27    1
    20    26    28   ar
    21    28    29   ar
    22    29    30    1
    23     4     5   ar
    24     5     6   ar
    25     6    18    1
    26    18    19    1
    27    19    20    1
    28    17    12    1
    29     6     1   ar
    30    20    18    1
    31    29    23   ar
    32     9    10    1
    33    21    22    1
@<TRIPOS>MOLECULE
*****
 30 33 0 0 0
SMALL
GASTEIGER

@<TRIPOS>ATOM
      1 C           4.8922   -1.8281   21.0486 C.ar    1  UNL1        0.0686
      2 C           5.5820   -0.9365   22.0381 C.ar    1  UNL1        0.1045
      3 N           6.6645   -1.4884   22.9176 N.ar    1  UNL1       -0.2290
      4 C           7.0573   -2.9319   22.8075 C.ar    1  UNL1        0.1319
      5 C           6.3675   -3.8235   21.8179 C.ar    1  UNL1        0.0303
      6 C           5.2849   -3.2716   20.9385 C.ar    1  UNL1       -0.0138
      7 O           2.3809   -1.3152   20.6242 O.2     1  UNL1       -0.2701
      8 C           3.8097   -1.2763   20.1691 C.2     1  UNL1        0.2471
      9 N           4.1559   -0.6854   18.8345 N.am    1  UNL1       -0.3008
     10 H           5.0936   -0.6598   18.5358 H       1  UNL1        0.1497
     11 C           3.0733   -0.1335   17.9550 C.3     1  UNL1        0.0898
     12 C           2.4519    1.1940   18.2738 C.3     1  UNL1        0.0246
     13 C           0.9621    1.3134   18.4013 C.3     1  UNL1        0.0338
     14 C           0.3407    2.6409   18.7200 C.3     1  UNL1        0.1422
     15 O           1.2091    3.8489   18.9113 O.3     1  UNL1       -0.3538
     16 C           2.6988    3.7295   18.7839 C.3     1  UNL1        0.1422
     17 C           3.3202    2.4020   18.4651 C.3     1  UNL1        0.0338
     18 C           4.5951   -4.1631   19.9489 C.3     1  UNL1        0.0226
     19 C           4.6325   -4.9867   18.6958 C.3     1  UNL1        0.0047
     20 C           3.3630   -4.8838   19.4880 C.3     1  UNL1        0.0047
     21 N           8.1399   -3.4838   23.6870 N.pl3   1  UNL1       -0.2973
     22 H           8.9973   -3.0071   23.7703 H       1  UNL1        0.1536
     23 C           7.9161   -4.7619   24.4396 C.ar    1  UNL1        0.0601
     24 C           8.4584   -6.0532   23.9026 C.ar    1  UNL1        0.0164
     25 C           8.2347   -7.3313   24.6552 C.ar    1  UNL1        0.0127
     26 C           7.4686   -7.3181   25.9448 C.ar    1  UNL1        0.0586
     27 CL          7.2449   -8.5962   26.6974 Cl      1  UNL1       -0.0822
     28 C           6.9263   -6.0268   26.4817 C.ar    1  UNL1        0.0240
     29 C           7.1501   -4.7487   25.7291 C.ar    1  UNL1        0.0719
     30 CL          6.6077   -3.4573   26.2661 Cl      1  UNL1       -0.0809
@<TRIPOS>BOND
     1     7     8    2
     2     8     9   am
     3     9    11    1
     4    11    12    1
     5    12    13    1
     6    13    14    1
     7    14    15    1
     8    15    16    1
     9    16    17    1
    10     8     1    1
    11     1     2   ar
    12     2     3   ar
    13     3     4   ar
    14     4    21    1
    15    21    23    1
    16    23    24   ar
    17    24    25   ar
    18    25    26   ar
    19    26    27    1
    20    26    28   ar
    21    28    29   ar
    22    29    30    1
    23     4     5   ar
    24     5     6   ar
    25     6    18    1
    26    18    19    1
    27    19    20    1
    28    17    12    1
    29     6     1   ar
    30    20    18    1
    31    29    23   ar
    32     9    10    1
    33    21    22    1
@<TRIPOS>MOLECULE
*****
 30 33 0 0 0
SMALL
GASTEIGER

@<TRIPOS>ATOM
      1 C          -0.7200    2.9420   20.7526 C.ar    1  UNL1        0.0686
      2 C          -0.1098    2.5343   19.4444 C.ar    1  UNL1        0.1045
      3 N           1.2716    1.9506   19.4107 N.ar    1  UNL1       -0.2290
      4 C           2.0428    1.7747   20.6852 C.ar    1  UNL1        0.1319
      5 C           1.4326    2.1824   21.9934 C.ar    1  UNL1        0.0303
      6 C           0.0512    2.7661   22.0271 C.ar    1  UNL1       -0.0138
      7 O          -2.2874    5.0139   20.7655 O.2     1  UNL1       -0.2701
      8 C          -2.1013    3.5257   20.7864 C.2     1  UNL1        0.2471
      9 N          -3.2966    2.6210   20.8410 N.am    1  UNL1       -0.3008
     10 H          -3.1745    1.6442   20.8547 H       1  UNL1        0.1497
     11 C          -4.6780    3.2047   20.8747 C.3     1  UNL1        0.0898
     12 C          -5.2919    3.6037   22.1840 C.3     1  UNL1        0.0246
     13 C          -4.5806    3.3002   23.4692 C.3     1  UNL1        0.0338
     14 C          -5.1945    3.6992   24.7784 C.3     1  UNL1        0.1422
     15 O          -6.5197    4.4016   24.8022 O.3     1  UNL1       -0.3538
     16 C          -7.2309    4.7051   23.5170 C.3     1  UNL1        0.1422
     17 C          -6.6170    4.3061   22.2078 C.3     1  UNL1        0.0338
     18 C          -0.5590    3.1738   23.3353 C.3     1  UNL1        0.0226
     19 C          -1.0200    2.8232   24.7190 C.3     1  UNL1        0.0047
     20 C          -1.1549    4.2305   24.2175 C.3     1  UNL1        0.0047
     21 N           3.4241    1.1910   20.6515 N.pl3   1  UNL1       -0.2973
     22 H           4.1942    1.7317   20.9411 H       1  UNL1        0.1536
     23 C           3.6323   -0.2165   20.1764 C.ar    1  UNL1        0.0601
     24 C           3.8986   -0.4866   18.7252 C.ar    1  UNL1        0.0164
     25 C           4.1067   -1.8940   18.2501 C.ar    1  UNL1        0.0127
     26 C           4.0485   -3.0314   19.2263 C.ar    1  UNL1        0.0586
     27 CL          4.2566   -4.4389   18.7512 Cl      1  UNL1       -0.0822
     28 C           3.7822   -2.7613   20.6775 C.ar    1  UNL1        0.0240
     29 C           3.5741   -1.3539   21.1525 C.ar    1  UNL1        0.0719
     30 CL          3.3077   -1.0838   22.6038 Cl      1  UNL1       -0.0809
@<TRIPOS>BOND
     1     7     8    2
     2     8     9   am
     3     9    11    1
     4    11    12    1
     5    12    13    1
     6    13    14    1
     7    14    15    1
     8    15    16    1
     9    16    17    1
    10     8     1    1
    11     1     2   ar
    12     2     3   ar
    13     3     4   ar
    14     4    21    1
    15    21    23    1
    16    23    24   ar
    17    24    25   ar
    18    25    26   ar
    19    26    27    1
    20    26    28   ar
    21    28    29   ar
    22    29    30    1
    23     4     5   ar
    24     5     6   ar
    25     6    18    1
    26    18    19    1
    27    19    20    1
    28    17    12    1
    29     6     1   ar
    30    20    18    1
    31    29    23   ar
    32     9    10    1
    33    21    22    1
@<TRIPOS>MOLECULE
*****
 30 33 0 0 0
SMALL
GASTEIGER

@<TRIPOS>ATOM
      1 C           1.3575    0.8865   23.6912 C.ar    1  UNL1        0.0686
      2 C           0.5729    1.1806   22.4470 C.ar    1  UNL1        0.1045
      3 N           0.9483    0.5249   21.1512 N.ar    1  UNL1       -0.2290
      4 C           2.1082   -0.4249   21.0995 C.ar    1  UNL1        0.1319
      5 C           2.8927   -0.7189   22.3437 C.ar    1  UNL1        0.0303
      6 C           2.5173   -0.0632   23.6396 C.ar    1  UNL1       -0.0138
      7 O           1.4702    2.9264   25.2961 O.2     1  UNL1       -0.2701
      8 C           0.9821    1.5422   24.9870 C.2     1  UNL1        0.2471
      9 N           0.1187    0.8135   25.9738 N.am    1  UNL1       -0.3008
     10 H          -0.2017   -0.0950   25.7709 H       1  UNL1        0.1497
     11 C          -0.2567    1.4692   27.2696 C.3     1  UNL1        0.0898
     12 C           0.4911    1.1314   28.5253 C.3     1  UNL1        0.0246
     13 C           1.3054   -0.1262   28.5980 C.3     1  UNL1        0.0338
     14 C           2.0531   -0.4640   29.8537 C.3     1  UNL1        0.1422
     15 O           1.9866    0.4559   31.0367 O.3     1  UNL1       -0.3538
     16 C           1.1723    1.7135   30.9640 C.3     1  UNL1        0.1422
     17 C           0.4246    2.0513   29.7083 C.3     1  UNL1        0.0338
     18 C           3.3019   -0.3573   24.8838 C.3     1  UNL1        0.0226
     19 C           3.8282   -1.3422   25.8852 C.3     1  UNL1        0.0047
     20 C           4.1343    0.1184   26.0374 C.3     1  UNL1        0.0047
     21 N           2.4836   -1.0805   19.8037 N.pl3   1  UNL1       -0.2973
     22 H           1.7874   -1.2991   19.1429 H       1  UNL1        0.1536
     23 C           3.9197   -1.4030   19.5147 C.ar    1  UNL1        0.0601
     24 C           4.9436   -0.3072   19.4870 C.ar    1  UNL1        0.0164
     25 C           6.3797   -0.6298   19.1980 C.ar    1  UNL1        0.0127
     26 C           6.7920   -2.0481   18.9367 C.ar    1  UNL1        0.0586
     27 CL          8.2281   -2.3707   18.6477 Cl      1  UNL1       -0.0822
     28 C           5.7681   -3.1439   18.9645 C.ar    1  UNL1        0.0240
     29 C           4.3319   -2.8214   19.2535 C.ar    1  UNL1        0.0719
     30 CL          3.3080   -3.9173   19.2812 Cl      1  UNL1       -0.0809
@<TRIPOS>BOND
     1     7     8    2
     2     8     9   am
     3     9    11    1
     4    11    12    1
     5    12    13    1
     6    13    14    1
     7    14    15    1
     8    15    16    1
     9    16    17    1
    10     8     1    1
    11     1     2   ar
    12     2     3   ar
    13     3     4   ar
    14     4    21    1
    15    21    23    1
    16    23    24   ar
    17    24    25   ar
    18    25    26   ar
    19    26    27    1
    20    26    28   ar
    21    28    29   ar
    22    29    30    1
    23     4     5   ar
    24     5     6   ar
    25     6    18    1
    26    18    19    1
    27    19    20    1
    28    17    12    1
    29     6     1   ar
    30    20    18    1
    31    29    23   ar
    32     9    10    1
    33    21    22    1
@<TRIPOS>MOLECULE
*****
 30 33 0 0 0
SMALL
GASTEIGER

@<TRIPOS>ATOM
      1 C          -5.2476  -17.0173   23.1141 C.ar    1  UNL1        0.0686
      2 C          -5.4372  -15.9471   24.1478 C.ar    1  UNL1        0.1045
      3 N          -6.8185  -15.5815   24.6042 N.ar    1  UNL1       -0.2290
      4 C          -8.0103  -16.2860   24.0268 C.ar    1  UNL1        0.1319
      5 C          -7.8207  -17.3562   22.9930 C.ar    1  UNL1        0.0303
      6 C          -6.4393  -17.7219   22.5366 C.ar    1  UNL1       -0.0138
      7 O          -2.8882  -16.3066   22.2906 O.2     1  UNL1       -0.2701
      8 C          -3.8663  -17.3830   22.6577 C.2     1  UNL1        0.2471
      9 N          -3.4631  -18.8251   22.5684 N.am    1  UNL1       -0.3008
     10 H          -4.1050  -19.5315   22.8094 H       1  UNL1        0.1497
     11 C          -2.0818  -19.1907   22.1121 C.3     1  UNL1        0.0898
     12 C          -1.5757  -18.7020   20.7873 C.3     1  UNL1        0.0246
     13 C          -2.4725  -18.7297   19.5852 C.3     1  UNL1        0.0338
     14 C          -1.9663  -18.2410   18.2605 C.3     1  UNL1        0.1422
     15 O          -0.5633  -17.7246   18.1378 O.3     1  UNL1       -0.3538
     16 C           0.3334  -17.6969   19.3399 C.3     1  UNL1        0.1422
     17 C          -0.1727  -18.1856   20.6646 C.3     1  UNL1        0.0338
     18 C          -6.2497  -18.7921   21.5029 C.3     1  UNL1        0.0226
     19 C          -6.0182  -19.1938   20.0763 C.3     1  UNL1        0.0047
     20 C          -6.1528  -20.2440   21.1389 C.3     1  UNL1        0.0047
     21 N          -9.3916  -15.9204   24.4831 N.pl3   1  UNL1       -0.2973
     22 H          -9.5129  -15.2770   25.2184 H       1  UNL1        0.1536
     23 C         -10.5880  -16.5350   23.8193 C.ar    1  UNL1        0.0601
     24 C         -11.3553  -15.7596   22.7897 C.ar    1  UNL1        0.0164
     25 C         -12.5518  -16.3742   22.1259 C.ar    1  UNL1        0.0127
     26 C         -12.9810  -17.7641   22.4916 C.ar    1  UNL1        0.0586
     27 CL        -14.1775  -18.3787   21.8277 Cl      1  UNL1       -0.0822
     28 C         -12.2137  -18.5395   23.5211 C.ar    1  UNL1        0.0240
     29 C         -11.0172  -17.9249   24.1850 C.ar    1  UNL1        0.0719
     30 CL        -10.2499  -18.7004   25.2146 Cl      1  UNL1       -0.0809
@<TRIPOS>BOND
     1     7     8    2
     2     8     9   am
     3     9    11    1
     4    11    12    1
     5    12    13    1
     6    13    14    1
     7    14    15    1
     8    15    16    1
     9    16    17    1
    10     8     1    1
    11     1     2   ar
    12     2     3   ar
    13     3     4   ar
    14     4    21    1
    15    21    23    1
    16    23    24   ar
    17    24    25   ar
    18    25    26   ar
    19    26    27    1
    20    26    28   ar
    21    28    29   ar
    22    29    30    1
    23     4     5   ar
    24     5     6   ar
    25     6    18    1
    26    18    19    1
    27    19    20    1
    28    17    12    1
    29     6     1   ar
    30    20    18    1
    31    29    23   ar
    32     9    10    1
    33    21    22    1
