@<TRIPOS>MOLECULE
*****
 32 35 0 0 0
SMALL
GASTEIGER

@<TRIPOS>ATOM
      1 C          -8.9829  -18.7587   20.6736 C.ar    1  UNL1        0.0951
      2 C          -9.6707  -19.3701   19.4891 C.ar    1  UNL1        0.1454
      3 F         -11.0702  -18.9587   19.1397 F       1  UNL1       -0.2040
      4 C          -8.9591  -20.3930   18.6540 C.ar    1  UNL1        0.0312
      5 C          -7.5595  -20.8044   19.0034 C.ar    1  UNL1        0.0204
      6 C          -6.8717  -20.1930   20.1880 C.ar    1  UNL1        0.0924
      7 C          -7.5834  -19.1701   21.0231 C.ar    1  UNL1        0.1598
      8 F          -6.8955  -18.5587   22.2075 F       1  UNL1       -0.2026
      9 C          -9.6946  -17.7359   21.5086 C.2     1  UNL1        0.2036
     10 O         -10.0865  -16.4184   20.9081 O.2     1  UNL1       -0.2863
     11 C          -7.5559  -16.2381   25.6195 C.2     1  UNL1        0.0974
     12 C          -8.2143  -16.7854   26.8511 C.2     1  UNL1        0.2421
     13 N          -9.4027  -17.6922   26.7263 N.2     1  UNL1       -0.0304
     14 C          -9.9326  -18.0516   25.3699 C.2     1  UNL1        0.3721
     15 N         -11.0796  -18.9160   24.9371 N.2     1  UNL1       -0.0307
     16 C         -11.1300  -18.9030   23.4380 C.2     1  UNL1        0.2390
     17 C         -10.0142  -18.0305   22.9442 C.2     1  UNL1        0.0896
     18 C          -9.2742  -17.5043   24.1383 C.2     1  UNL1        0.0782
     19 C          -8.0858  -16.5976   24.2631 C.3     1  UNL1        0.0751
     20 N          -5.1792  -14.4245   25.8691 N.1     1  UNL1       -0.1910
     21 C          -6.3675  -15.3313   25.7443 C.1     1  UNL1        0.1003
     22 N          -5.4722  -20.6044   20.5374 N.pl3   1  UNL1       -0.2128
     23 H          -5.2640  -21.5528   20.6999 H       1  UNL1        0.1738
     24 S          -4.3899  -19.5709   20.6393 S.O2    1  UNL1        0.0751
     25 O          -4.6172  -19.1915   19.2060 O.2     1  UNL1       -0.1499
     26 O          -4.1626  -19.9502   22.0726 O.2     1  UNL1       -0.1499
     27 C          -3.3076  -18.5373   20.7412 C.ar    1  UNL1        0.1442
     28 C          -3.2018  -17.6807   21.9680 C.ar    1  UNL1        0.0234
     29 C          -2.1195  -16.6471   22.0700 C.ar    1  UNL1        0.0221
     30 C          -1.1430  -16.4702   20.9452 C.ar    1  UNL1        0.0990
     31 N          -1.2488  -17.3268   19.7184 N.ar    1  UNL1       -0.2409
     32 C          -2.3311  -18.3603   19.6164 C.ar    1  UNL1        0.1190
@<TRIPOS>BOND
     1    20    21    3
     2    21    11    1
     3    11    12    2
     4    12    13    1
     5    13    14    2
     6    14    15    1
     7    15    16    2
     8    16    17    1
     9    17     9    1
    10     9    10    2
    11     9     1    1
    12     1     2   ar
    13     2     3    1
    14     2     4   ar
    15     4     5   ar
    16     5     6   ar
    17     6    22    1
    18    22    24    1
    19    24    25    2
    20    24    26    2
    21    24    27    1
    22    27    28   ar
    23    28    29   ar
    24    29    30   ar
    25    30    31   ar
    26    31    32   ar
    27     6     7   ar
    28     7     8    1
    29    17    18    2
    30    18    19    1
    31    19    11    1
    32    18    14    1
    33     7     1   ar
    34    32    27   ar
    35    22    23    1
@<TRIPOS>MOLECULE
*****
 32 35 0 0 0
SMALL
GASTEIGER

@<TRIPOS>ATOM
      1 C          -7.2167  -17.7578   23.1618 C.ar    1  UNL1        0.0951
      2 C          -7.6719  -16.4804   23.8030 C.ar    1  UNL1        0.1454
      3 F          -9.1370  -16.2055   23.9696 F       1  UNL1       -0.2040
      4 C          -6.6619  -15.4781   24.2777 C.ar    1  UNL1        0.0312
      5 C          -5.1968  -15.7530   24.1111 C.ar    1  UNL1        0.0204
      6 C          -4.7416  -17.0304   23.4699 C.ar    1  UNL1        0.0924
      7 C          -5.7515  -18.0328   22.9952 C.ar    1  UNL1        0.1598
      8 F          -5.2963  -19.3102   22.3540 F       1  UNL1       -0.2026
      9 C          -8.2266  -18.7602   22.6872 C.2     1  UNL1        0.2036
     10 O          -8.1153  -20.1950   23.1103 O.2     1  UNL1       -0.2863
     11 C         -12.9818  -18.1989   23.5755 C.2     1  UNL1        0.0974
     12 C         -13.7494  -17.7428   22.3702 C.2     1  UNL1        0.2421
     13 N         -13.0368  -17.5108   21.0709 N.2     1  UNL1       -0.0304
     14 C         -11.5566  -17.7350   20.9768 C.2     1  UNL1        0.3721
     15 N         -10.5898  -17.5897   19.8392 N.2     1  UNL1       -0.0307
     16 C          -9.2246  -17.9561   20.3414 C.2     1  UNL1        0.2390
     17 C          -9.3478  -18.3278   21.7894 C.2     1  UNL1        0.0896
     18 C         -10.7891  -18.1911   22.1821 C.2     1  UNL1        0.0782
     19 C         -11.5017  -18.4230   23.4815 C.3     1  UNL1        0.0751
     20 N         -14.4070  -18.6628   26.1743 N.1     1  UNL1       -0.1910
     21 C         -13.6944  -18.4308   24.8749 C.1     1  UNL1        0.1003
     22 N          -3.2765  -17.3054   23.3033 N.pl3   1  UNL1       -0.2128
     23 H          -2.6990  -17.3934   24.0957 H       1  UNL1        0.1738
     24 S          -2.6913  -17.4463   21.9294 S.O2    1  UNL1        0.0751
     25 O          -2.9168  -15.9840   21.6833 O.2     1  UNL1       -0.1499
     26 O          -2.4656  -18.9086   22.1755 O.2     1  UNL1       -0.1499
     27 C          -2.1060  -17.5872   20.5554 C.ar    1  UNL1        0.1442
     28 C          -2.9644  -17.3561   19.3473 C.ar    1  UNL1        0.0234
     29 C          -2.3793  -17.4970   17.9734 C.ar    1  UNL1        0.0221
     30 C          -0.9356  -17.8691   17.8076 C.ar    1  UNL1        0.0990
     31 N          -0.0772  -18.1003   19.0157 N.ar    1  UNL1       -0.2409
     32 C          -0.6624  -17.9594   20.3896 C.ar    1  UNL1        0.1190
@<TRIPOS>BOND
     1    20    21    3
     2    21    11    1
     3    11    12    2
     4    12    13    1
     5    13    14    2
     6    14    15    1
     7    15    16    2
     8    16    17    1
     9    17     9    1
    10     9    10    2
    11     9     1    1
    12     1     2   ar
    13     2     3    1
    14     2     4   ar
    15     4     5   ar
    16     5     6   ar
    17     6    22    1
    18    22    24    1
    19    24    25    2
    20    24    26    2
    21    24    27    1
    22    27    28   ar
    23    28    29   ar
    24    29    30   ar
    25    30    31   ar
    26    31    32   ar
    27     6     7   ar
    28     7     8    1
    29    17    18    2
    30    18    19    1
    31    19    11    1
    32    18    14    1
    33     7     1   ar
    34    32    27   ar
    35    22    23    1
@<TRIPOS>MOLECULE
*****
 32 35 0 0 0
SMALL
GASTEIGER

@<TRIPOS>ATOM
      1 C          -8.3954  -17.0365   25.2208 C.ar    1  UNL1        0.0951
      2 C          -8.4079  -16.8036   26.7026 C.ar    1  UNL1        0.1454
      3 F          -9.5025  -17.3894   27.5445 F       1  UNL1       -0.2040
      4 C          -7.3260  -15.9851   27.3424 C.ar    1  UNL1        0.0312
      5 C          -6.2315  -15.3993   26.5004 C.ar    1  UNL1        0.0204
      6 C          -6.2189  -15.6322   25.0186 C.ar    1  UNL1        0.0924
      7 C          -7.3008  -16.4508   24.3788 C.ar    1  UNL1        0.1598
      8 F          -7.2882  -16.6836   22.8971 F       1  UNL1       -0.2026
      9 C          -9.4773  -17.8551   24.5810 C.2     1  UNL1        0.2036
     10 O          -9.6682  -19.2885   24.9795 O.2     1  UNL1       -0.2863
     11 C         -10.1164  -18.9519   19.8794 C.2     1  UNL1        0.0974
     12 C         -11.1213  -18.0649   19.2061 C.2     1  UNL1        0.2421
     13 N         -11.8053  -16.9805   19.9847 N.2     1  UNL1       -0.0304
     14 C         -11.4844  -16.7830   21.4365 C.2     1  UNL1        0.3721
     15 N         -11.9942  -15.8051   22.4532 N.2     1  UNL1       -0.0307
     16 C         -11.3044  -16.0876   23.7549 C.2     1  UNL1        0.2390
     17 C         -10.3682  -17.2402   23.5427 C.2     1  UNL1        0.0896
     18 C         -10.4795  -17.6700   22.1099 C.2     1  UNL1        0.0782
     19 C          -9.7955  -18.7544   21.3313 C.3     1  UNL1        0.0751
     20 N          -8.7484  -21.1208   18.3224 N.1     1  UNL1       -0.1910
     21 C          -9.4324  -20.0364   19.1009 C.1     1  UNL1        0.1003
     22 N          -5.1244  -15.0464   24.1767 N.pl3   1  UNL1       -0.2128
     23 H          -4.9912  -14.0713   24.1512 H       1  UNL1        0.1738
     24 S          -4.2327  -15.9463   23.3736 S.O2    1  UNL1        0.0751
     25 O          -4.4375  -17.0436   24.3755 O.2     1  UNL1       -0.1499
     26 O          -4.0278  -14.8491   22.3715 O.2     1  UNL1       -0.1499
     27 C          -3.3410  -16.8463   22.5704 C.ar    1  UNL1        0.1442
     28 C          -3.5515  -18.3311   22.5997 C.ar    1  UNL1        0.0234
     29 C          -2.6599  -19.2310   21.7965 C.ar    1  UNL1        0.0221
     30 C          -1.5577  -18.6461   20.9641 C.ar    1  UNL1        0.0990
     31 N          -1.3471  -17.1613   20.9347 N.ar    1  UNL1       -0.2409
     32 C          -2.2387  -16.2614   21.7379 C.ar    1  UNL1        0.1190
@<TRIPOS>BOND
     1    20    21    3
     2    21    11    1
     3    11    12    2
     4    12    13    1
     5    13    14    2
     6    14    15    1
     7    15    16    2
     8    16    17    1
     9    17     9    1
    10     9    10    2
    11     9     1    1
    12     1     2   ar
    13     2     3    1
    14     2     4   ar
    15     4     5   ar
    16     5     6   ar
    17     6    22    1
    18    22    24    1
    19    24    25    2
    20    24    26    2
    21    24    27    1
    22    27    28   ar
    23    28    29   ar
    24    29    30   ar
    25    30    31   ar
    26    31    32   ar
    27     6     7   ar
    28     7     8    1
    29    17    18    2
    30    18    19    1
    31    19    11    1
    32    18    14    1
    33     7     1   ar
    34    32    27   ar
    35    22    23    1
@<TRIPOS>MOLECULE
*****
 32 35 0 0 0
SMALL
GASTEIGER

@<TRIPOS>ATOM
      1 C          -7.5959  -15.8286   25.2710 C.ar    1  UNL1        0.0951
      2 C          -6.9955  -15.9683   26.6384 C.ar    1  UNL1        0.1454
      3 F          -7.8801  -16.2156   27.8243 F       1  UNL1       -0.2040
      4 C          -5.5104  -15.8608   26.8201 C.ar    1  UNL1        0.0312
      5 C          -4.6257  -15.6135   25.6342 C.ar    1  UNL1        0.0204
      6 C          -5.2263  -15.4738   24.2667 C.ar    1  UNL1        0.0924
      7 C          -6.7113  -15.5813   24.0851 C.ar    1  UNL1        0.1598
      8 F          -7.3117  -15.4416   22.7176 F       1  UNL1       -0.2026
      9 C          -9.0810  -15.9362   25.0894 C.2     1  UNL1        0.2036
     10 O          -9.9634  -14.7686   25.4185 O.2     1  UNL1       -0.2863
     11 C         -11.2756  -16.9520   20.8623 C.2     1  UNL1        0.0974
     12 C         -11.7337  -18.3775   20.7720 C.2     1  UNL1        0.2421
     13 N         -11.4946  -19.3161   21.9174 N.2     1  UNL1       -0.0304
     14 C         -10.7975  -18.8293   23.1531 C.2     1  UNL1        0.3721
     15 N         -10.4250  -19.5178   24.4326 N.2     1  UNL1       -0.0307
     16 C          -9.7366  -18.5178   25.3137 C.2     1  UNL1        0.2390
     17 C          -9.6837  -17.2113   24.5787 C.2     1  UNL1        0.0896
     18 C         -10.3394  -17.4038   23.2434 C.2     1  UNL1        0.0782
     19 C         -10.5784  -16.4652   22.0980 C.3     1  UNL1        0.0751
     20 N         -11.7537  -15.0748   18.5716 N.1     1  UNL1       -0.1910
     21 C         -11.5146  -16.0134   19.7170 C.1     1  UNL1        0.1003
     22 N          -4.3416  -15.2265   23.0809 N.pl3   1  UNL1       -0.2128
     23 H          -4.2378  -14.3141   22.7259 H       1  UNL1        0.1738
     24 S          -3.6150  -16.3693   22.4359 S.O2    1  UNL1        0.0751
     25 O          -2.5802  -15.4171   21.9143 O.2     1  UNL1       -0.1499
     26 O          -4.6499  -17.3216   22.9576 O.2     1  UNL1       -0.1499
     27 C          -2.8885  -17.5122   21.7909 C.ar    1  UNL1        0.1442
     28 C          -1.9731  -17.2594   20.6298 C.ar    1  UNL1        0.0234
     29 C          -1.2466  -18.4022   19.9848 C.ar    1  UNL1        0.0221
     30 C          -1.4353  -19.7979   20.5010 C.ar    1  UNL1        0.0990
     31 N          -2.3507  -20.0508   21.6621 N.ar    1  UNL1       -0.2409
     32 C          -3.0772  -18.9080   22.3071 C.ar    1  UNL1        0.1190
@<TRIPOS>BOND
     1    20    21    3
     2    21    11    1
     3    11    12    2
     4    12    13    1
     5    13    14    2
     6    14    15    1
     7    15    16    2
     8    16    17    1
     9    17     9    1
    10     9    10    2
    11     9     1    1
    12     1     2   ar
    13     2     3    1
    14     2     4   ar
    15     4     5   ar
    16     5     6   ar
    17     6    22    1
    18    22    24    1
    19    24    25    2
    20    24    26    2
    21    24    27    1
    22    27    28   ar
    23    28    29   ar
    24    29    30   ar
    25    30    31   ar
    26    31    32   ar
    27     6     7   ar
    28     7     8    1
    29    17    18    2
    30    18    19    1
    31    19    11    1
    32    18    14    1
    33     7     1   ar
    34    32    27   ar
    35    22    23    1
@<TRIPOS>MOLECULE
*****
 32 35 0 0 0
SMALL
GASTEIGER

@<TRIPOS>ATOM
      1 C          -8.6141  -17.5945   23.9809 C.ar    1  UNL1        0.0951
      2 C          -7.9246  -16.3198   24.3677 C.ar    1  UNL1        0.1454
      3 F          -8.6287  -15.3202   25.2366 F       1  UNL1       -0.2040
      4 C          -6.5310  -16.0448   23.8857 C.ar    1  UNL1        0.0312
      5 C          -5.8269  -17.0445   23.0169 C.ar    1  UNL1        0.0204
      6 C          -6.5165  -18.3192   22.6300 C.ar    1  UNL1        0.0924
      7 C          -7.9101  -18.5943   23.1120 C.ar    1  UNL1        0.1598
      8 F          -8.5995  -19.8690   22.7251 F       1  UNL1       -0.2026
      9 C         -10.0077  -17.8696   24.4629 C.2     1  UNL1        0.2036
     10 O         -10.2470  -18.2303   25.8991 O.2     1  UNL1       -0.2863
     11 C         -10.5725  -15.2888   20.3718 C.2     1  UNL1        0.0974
     12 C         -11.9074  -15.5092   19.7241 C.2     1  UNL1        0.2421
     13 N         -12.8982  -16.4466   20.3481 N.2     1  UNL1       -0.0304
     14 C         -12.5541  -17.1638   21.6198 C.2     1  UNL1        0.3721
     15 N         -13.3217  -18.1404   22.4606 N.2     1  UNL1       -0.0307
     16 C         -12.4612  -18.5237   23.6280 C.2     1  UNL1        0.2390
     17 C         -11.1618  -17.7839   23.5087 C.2     1  UNL1        0.0896
     18 C         -11.2193  -16.9435   22.2675 C.2     1  UNL1        0.0782
     19 C         -10.2284  -16.0060   21.6435 C.3     1  UNL1        0.0751
     20 N          -8.5909  -13.4139   19.1237 N.1     1  UNL1       -0.1910
     21 C          -9.5817  -14.3514   19.7477 C.1     1  UNL1        0.1003
     22 N          -5.8124  -19.3189   21.7612 N.pl3   1  UNL1       -0.2128
     23 H          -6.2269  -20.1937   21.5820 H       1  UNL1        0.1738
     24 S          -4.4768  -18.9857   21.1653 S.O2    1  UNL1        0.0751
     25 O          -5.1509  -18.5484   19.8987 O.2     1  UNL1       -0.1499
     26 O          -3.8026  -19.4230   22.4319 O.2     1  UNL1       -0.1499
     27 C          -3.1411  -18.6525   20.5695 C.ar    1  UNL1        0.1442
     28 C          -3.0559  -18.1221   19.1689 C.ar    1  UNL1        0.0234
     29 C          -1.7203  -17.7889   18.5731 C.ar    1  UNL1        0.0221
     30 C          -0.4698  -17.9860   19.3777 C.ar    1  UNL1        0.0990
     31 N          -0.5550  -18.5164   20.7782 N.ar    1  UNL1       -0.2409
     32 C          -1.8906  -18.8496   21.3741 C.ar    1  UNL1        0.1190
@<TRIPOS>BOND
     1    20    21    3
     2    21    11    1
     3    11    12    2
     4    12    13    1
     5    13    14    2
     6    14    15    1
     7    15    16    2
     8    16    17    1
     9    17     9    1
    10     9    10    2
    11     9     1    1
    12     1     2   ar
    13     2     3    1
    14     2     4   ar
    15     4     5   ar
    16     5     6   ar
    17     6    22    1
    18    22    24    1
    19    24    25    2
    20    24    26    2
    21    24    27    1
    22    27    28   ar
    23    28    29   ar
    24    29    30   ar
    25    30    31   ar
    26    31    32   ar
    27     6     7   ar
    28     7     8    1
    29    17    18    2
    30    18    19    1
    31    19    11    1
    32    18    14    1
    33     7     1   ar
    34    32    27   ar
    35    22    23    1
@<TRIPOS>MOLECULE
*****
 32 35 0 0 0
SMALL
GASTEIGER

@<TRIPOS>ATOM
      1 C          -5.8089  -15.7341   24.4041 C.ar    1  UNL1        0.0951
      2 C          -5.4827  -15.7778   25.8675 C.ar    1  UNL1        0.1454
      3 F          -4.0517  -15.7756   26.3172 F       1  UNL1       -0.2040
      4 C          -6.5873  -15.8237   26.8812 C.ar    1  UNL1        0.0312
      5 C          -8.0183  -15.8259   26.4315 C.ar    1  UNL1        0.0204
      6 C          -8.3446  -15.7822   24.9680 C.ar    1  UNL1        0.0924
      7 C          -7.2399  -15.7363   23.9543 C.ar    1  UNL1        0.1598
      8 F          -7.5663  -15.6927   22.4909 F       1  UNL1       -0.2026
      9 C          -4.7043  -15.6883   23.3904 C.2     1  UNL1        0.2036
     10 O          -4.3587  -14.3939   22.7157 O.2     1  UNL1       -0.2863
     11 C          -5.9128  -19.4909   20.5983 C.2     1  UNL1        0.0974
     12 C          -4.8361  -20.5334   20.5366 C.2     1  UNL1        0.2421
     13 N          -3.5552  -20.3342   21.2914 N.2     1  UNL1       -0.0304
     14 C          -3.3511  -19.0926   22.1079 C.2     1  UNL1        0.3721
     15 N          -2.2029  -18.6236   22.9516 N.2     1  UNL1       -0.0307
     16 C          -2.5701  -17.2913   23.5347 C.2     1  UNL1        0.2390
     17 C          -3.9451  -16.9368   23.0514 C.2     1  UNL1        0.0896
     18 C          -4.4278  -18.0501   22.1696 C.2     1  UNL1        0.0782
     19 C          -5.7087  -18.2493   21.4148 C.3     1  UNL1        0.0751
     20 N          -8.4745  -19.8892   19.0887 N.1     1  UNL1       -0.1910
     21 C          -7.1937  -19.6900   19.8435 C.1     1  UNL1        0.1003
     22 N          -9.7756  -15.7844   24.5183 N.pl3   1  UNL1       -0.2128
     23 H         -10.4276  -15.1849   24.9482 H       1  UNL1        0.1738
     24 S         -10.2132  -16.7000   23.4137 S.O2    1  UNL1        0.0751
     25 O         -10.7148  -15.5205   22.6346 O.2     1  UNL1       -0.1499
     26 O          -9.7117  -17.8796   24.1928 O.2     1  UNL1       -0.1499
     27 C         -10.6509  -17.6157   22.3091 C.ar    1  UNL1        0.1442
     28 C         -10.6709  -19.0994   22.5287 C.ar    1  UNL1        0.0234
     29 C         -11.1086  -20.0151   21.4242 C.ar    1  UNL1        0.0221
     30 C         -11.5261  -19.4471   20.1001 C.ar    1  UNL1        0.0990
     31 N         -11.5061  -17.9634   19.8806 N.ar    1  UNL1       -0.2409
     32 C         -11.0685  -17.0477   20.9851 C.ar    1  UNL1        0.1190
@<TRIPOS>BOND
     1    20    21    3
     2    21    11    1
     3    11    12    2
     4    12    13    1
     5    13    14    2
     6    14    15    1
     7    15    16    2
     8    16    17    1
     9    17     9    1
    10     9    10    2
    11     9     1    1
    12     1     2   ar
    13     2     3    1
    14     2     4   ar
    15     4     5   ar
    16     5     6   ar
    17     6    22    1
    18    22    24    1
    19    24    25    2
    20    24    26    2
    21    24    27    1
    22    27    28   ar
    23    28    29   ar
    24    29    30   ar
    25    30    31   ar
    26    31    32   ar
    27     6     7   ar
    28     7     8    1
    29    17    18    2
    30    18    19    1
    31    19    11    1
    32    18    14    1
    33     7     1   ar
    34    32    27   ar
    35    22    23    1
@<TRIPOS>MOLECULE
*****
 32 35 0 0 0
SMALL
GASTEIGER

@<TRIPOS>ATOM
      1 C          -6.8431  -16.0833   23.4814 C.ar    1  UNL1        0.0951
      2 C          -6.7631  -15.2949   24.7549 C.ar    1  UNL1        0.1454
      3 F          -7.8861  -14.3785   25.1414 F       1  UNL1       -0.2040
      4 C          -5.5603  -15.4228   25.6420 C.ar    1  UNL1        0.0312
      5 C          -4.4374  -16.3391   25.2555 C.ar    1  UNL1        0.0204
      6 C          -4.5174  -17.1275   23.9819 C.ar    1  UNL1        0.0924
      7 C          -5.7202  -16.9996   23.0948 C.ar    1  UNL1        0.1598
      8 F          -5.8000  -17.7881   21.8213 F       1  UNL1       -0.2026
      9 C          -8.0459  -15.9554   22.5943 C.2     1  UNL1        0.2036
     10 O          -8.0330  -14.9879   21.4481 O.2     1  UNL1       -0.2863
     11 C          -9.9115  -19.7089   20.1150 C.2     1  UNL1        0.0974
     12 C         -11.1576  -20.2594   20.7426 C.2     1  UNL1        0.2421
     13 N         -11.6953  -19.6490   22.0029 N.2     1  UNL1       -0.0304
     14 C         -10.9868  -18.4882   22.6356 C.2     1  UNL1        0.3721
     15 N         -11.2780  -17.6857   23.8690 N.2     1  UNL1       -0.0307
     16 C         -10.2118  -16.6392   24.0037 C.2     1  UNL1        0.2390
     17 C          -9.2616  -16.7949   22.8535 C.2     1  UNL1        0.0896
     18 C          -9.7406  -17.9377   22.0080 C.2     1  UNL1        0.0782
     19 C          -9.2029  -18.5480   20.7477 C.3     1  UNL1        0.0751
     20 N          -8.8362  -20.9296   17.5944 N.1     1  UNL1       -0.1910
     21 C          -9.3738  -20.3193   18.8547 C.1     1  UNL1        0.1003
     22 N          -3.3944  -18.0439   23.5954 N.pl3   1  UNL1       -0.2128
     23 H          -3.0259  -18.6759   24.2541 H       1  UNL1        0.1738
     24 S          -2.8329  -17.9971   22.2052 S.O2    1  UNL1        0.0751
     25 O          -2.6618  -16.5118   22.3242 O.2     1  UNL1       -0.1499
     26 O          -3.0040  -19.4826   22.0862 O.2     1  UNL1       -0.1499
     27 C          -2.2714  -17.9505   20.8150 C.ar    1  UNL1        0.1442
     28 C          -3.1536  -17.5730   19.6622 C.ar    1  UNL1        0.0234
     29 C          -2.5922  -17.5263   18.2720 C.ar    1  UNL1        0.0221
     30 C          -1.1485  -17.8572   18.0347 C.ar    1  UNL1        0.0990
     31 N          -0.2663  -18.2347   19.1875 N.ar    1  UNL1       -0.2409
     32 C          -0.8277  -18.2814   20.5777 C.ar    1  UNL1        0.1190
@<TRIPOS>BOND
     1    20    21    3
     2    21    11    1
     3    11    12    2
     4    12    13    1
     5    13    14    2
     6    14    15    1
     7    15    16    2
     8    16    17    1
     9    17     9    1
    10     9    10    2
    11     9     1    1
    12     1     2   ar
    13     2     3    1
    14     2     4   ar
    15     4     5   ar
    16     5     6   ar
    17     6    22    1
    18    22    24    1
    19    24    25    2
    20    24    26    2
    21    24    27    1
    22    27    28   ar
    23    28    29   ar
    24    29    30   ar
    25    30    31   ar
    26    31    32   ar
    27     6     7   ar
    28     7     8    1
    29    17    18    2
    30    18    19    1
    31    19    11    1
    32    18    14    1
    33     7     1   ar
    34    32    27   ar
    35    22    23    1
@<TRIPOS>MOLECULE
*****
 32 35 0 0 0
SMALL
GASTEIGER

@<TRIPOS>ATOM
      1 C           5.1514   -3.2349   23.0009 C.ar    1  UNL1        0.0951
      2 C           4.2998   -2.1294   23.5510 C.ar    1  UNL1        0.1454
      3 F           3.2252   -1.5173   22.7022 F       1  UNL1       -0.2040
      4 C           4.5229   -1.6360   24.9498 C.ar    1  UNL1        0.0312
      5 C           5.5975   -2.2482   25.7987 C.ar    1  UNL1        0.0204
      6 C           6.4491   -3.3537   25.2485 C.ar    1  UNL1        0.0924
      7 C           6.2260   -3.8471   23.8496 C.ar    1  UNL1        0.1598
      8 F           7.0776   -4.9526   23.2996 F       1  UNL1       -0.2026
      9 C           4.9283   -3.7283   21.6020 C.2     1  UNL1        0.2036
     10 O           3.9702   -4.8540   21.3476 O.2     1  UNL1       -0.2863
     11 C           3.4970   -0.3998   18.3480 C.2     1  UNL1        0.0974
     12 C           4.5725   -0.0482   17.3633 C.2     1  UNL1        0.2421
     13 N           5.9168   -0.7076   17.4536 N.2     1  UNL1       -0.0304
     14 C           6.1856   -1.7185   18.5286 C.2     1  UNL1        0.3721
     15 N           7.4036   -2.5270   18.8642 N.2     1  UNL1       -0.0307
     16 C           7.0809   -3.3783   20.0564 C.2     1  UNL1        0.2390
     17 C           5.6634   -3.0959   20.4576 C.2     1  UNL1        0.0896
     18 C           5.1101   -2.0701   19.5133 C.2     1  UNL1        0.0782
     19 C           3.7658   -1.4107   19.4230 C.3     1  UNL1        0.0751
     20 N           0.8085    0.9190   18.1673 N.1     1  UNL1       -0.1910
     21 C           2.1527    0.2596   18.2577 C.1     1  UNL1        0.1003
     22 N           7.5237   -3.9659   26.0973 N.pl3   1  UNL1       -0.2128
     23 H           8.3744   -4.2458   25.6883 H       1  UNL1        0.1738
     24 S           7.3022   -4.1515   27.5692 S.O2    1  UNL1        0.0751
     25 O           6.4122   -5.3255   27.2873 O.2     1  UNL1       -0.1499
     26 O           8.1923   -2.9775   27.8512 O.2     1  UNL1       -0.1499
     27 C           7.0808   -4.3371   29.0412 C.ar    1  UNL1        0.1442
     28 C           6.8199   -3.1470   29.9162 C.ar    1  UNL1        0.0234
     29 C           6.5985   -3.3325   31.3881 C.ar    1  UNL1        0.0221
     30 C           6.6380   -4.7081   31.9850 C.ar    1  UNL1        0.0990
     31 N           6.8989   -5.8982   31.1100 N.ar    1  UNL1       -0.2409
     32 C           7.1203   -5.7126   29.6381 C.ar    1  UNL1        0.1190
@<TRIPOS>BOND
     1    20    21    3
     2    21    11    1
     3    11    12    2
     4    12    13    1
     5    13    14    2
     6    14    15    1
     7    15    16    2
     8    16    17    1
     9    17     9    1
    10     9    10    2
    11     9     1    1
    12     1     2   ar
    13     2     3    1
    14     2     4   ar
    15     4     5   ar
    16     5     6   ar
    17     6    22    1
    18    22    24    1
    19    24    25    2
    20    24    26    2
    21    24    27    1
    22    27    28   ar
    23    28    29   ar
    24    29    30   ar
    25    30    31   ar
    26    31    32   ar
    27     6     7   ar
    28     7     8    1
    29    17    18    2
    30    18    19    1
    31    19    11    1
    32    18    14    1
    33     7     1   ar
    34    32    27   ar
    35    22    23    1
@<TRIPOS>MOLECULE
*****
 32 35 0 0 0
SMALL
GASTEIGER

@<TRIPOS>ATOM
      1 C           6.6451   -3.7809   21.3420 C.ar    1  UNL1        0.0951
      2 C           8.1440   -3.7512   21.2966 C.ar    1  UNL1        0.1454
      3 F           8.8560   -3.8197   19.9781 F       1  UNL1       -0.2040
      4 C           8.9311   -3.6530   22.5697 C.ar    1  UNL1        0.0312
      5 C           8.2192   -3.5845   23.8883 C.ar    1  UNL1        0.0204
      6 C           6.7202   -3.6142   23.9336 C.ar    1  UNL1        0.0924
      7 C           5.9331   -3.7124   22.6605 C.ar    1  UNL1        0.1598
      8 F           4.4341   -3.7421   22.7059 F       1  UNL1       -0.2026
      9 C           5.8580   -3.8791   20.0688 C.2     1  UNL1        0.2036
     10 O           5.0708   -5.1199   19.7675 O.2     1  UNL1       -0.2863
     11 C           2.5716   -0.3740   19.2747 C.2     1  UNL1        0.0974
     12 C           2.9851    0.5769   18.1908 C.2     1  UNL1        0.2421
     13 N           4.2938    0.3847   17.4835 N.2     1  UNL1       -0.0304
     14 C           5.1890   -0.7584   17.8599 C.2     1  UNL1        0.3721
     15 N           6.5269   -1.1978   17.3433 N.2     1  UNL1       -0.0307
     16 C           6.9404   -2.4203   18.1079 C.2     1  UNL1        0.2390
     17 C           5.8580   -2.7365   19.0971 C.2     1  UNL1        0.0896
     18 C           4.7756   -1.7093   18.9438 C.2     1  UNL1        0.0782
     19 C           3.4669   -1.5171   19.6511 C.3     1  UNL1        0.0751
     20 N          -0.0458    0.0104   20.6894 N.1     1  UNL1       -0.1910
     21 C           1.2629   -0.1818   19.9821 C.1     1  UNL1        0.1003
     22 N           6.0083   -3.5457   25.2521 N.pl3   1  UNL1       -0.2128
     23 H           5.1041   -3.1596   25.3039 H       1  UNL1        0.1738
     24 S           6.6739   -4.0654   26.4917 S.O2    1  UNL1        0.0751
     25 O           6.5376   -5.4677   25.9771 O.2     1  UNL1       -0.1499
     26 O           6.8103   -2.6631   27.0065 O.2     1  UNL1       -0.1499
     27 C           7.3396   -4.5851   27.7315 C.ar    1  UNL1        0.1442
     28 C           8.8112   -4.3782   27.9355 C.ar    1  UNL1        0.0234
     29 C           9.4769   -4.8978   29.1751 C.ar    1  UNL1        0.0221
     30 C           8.6710   -5.6245   30.2108 C.ar    1  UNL1        0.0990
     31 N           7.1995   -5.8315   30.0068 N.ar    1  UNL1       -0.2409
     32 C           6.5338   -5.3118   28.7671 C.ar    1  UNL1        0.1190
@<TRIPOS>BOND
     1    20    21    3
     2    21    11    1
     3    11    12    2
     4    12    13    1
     5    13    14    2
     6    14    15    1
     7    15    16    2
     8    16    17    1
     9    17     9    1
    10     9    10    2
    11     9     1    1
    12     1     2   ar
    13     2     3    1
    14     2     4   ar
    15     4     5   ar
    16     5     6   ar
    17     6    22    1
    18    22    24    1
    19    24    25    2
    20    24    26    2
    21    24    27    1
    22    27    28   ar
    23    28    29   ar
    24    29    30   ar
    25    30    31   ar
    26    31    32   ar
    27     6     7   ar
    28     7     8    1
    29    17    18    2
    30    18    19    1
    31    19    11    1
    32    18    14    1
    33     7     1   ar
    34    32    27   ar
    35    22    23    1
