@<TRIPOS>MOLECULE
*****
 28 30 0 0 0
SMALL
GASTEIGER

@<TRIPOS>ATOM
      1 C          -8.5727  -18.7565   21.4751 C.ar    1  UNL1       -0.0149
      2 C          -7.9900  -18.1011   22.6920 C.ar    1  UNL1        0.0152
      3 C          -8.8861  -17.3925   23.6639 C.ar    1  UNL1        0.0809
      4 N         -10.3650  -17.3393   23.4190 N.ar    1  UNL1       -0.2414
      5 C         -10.9478  -17.9947   22.2022 C.ar    1  UNL1        0.1523
      6 C         -10.0516  -18.7033   21.2301 C.ar    1  UNL1        0.0192
      7 C          -8.3034  -16.7370   24.8809 C.ar    1  UNL1        0.0185
      8 C          -9.0299  -16.8077   26.1913 C.ar    1  UNL1        0.0015
      9 C          -8.4472  -16.1523   27.4082 C.ar    1  UNL1        0.0009
     10 C          -7.1380  -15.4262   27.3147 C.ar    1  UNL1        0.0114
     11 C          -6.4116  -15.3555   26.0043 C.ar    1  UNL1        0.0577
     12 CL         -5.1023  -14.6293   25.9108 Cl      1  UNL1       -0.0822
     13 C          -6.9942  -16.0109   24.7874 C.ar    1  UNL1        0.0129
     14 C         -12.4267  -17.9415   21.9573 C.3     1  UNL1        0.4348
     15 F         -13.9056  -17.8883   21.7124 F       1  UNL1       -0.1644
     16 F         -12.6771  -18.1918   23.4149 F       1  UNL1       -0.1644
     17 F         -12.1763  -17.6912   20.4996 F       1  UNL1       -0.1644
     18 C          -7.6765  -19.4651   20.5031 C.3     1  UNL1        0.0527
     19 C          -3.2101  -19.2944   21.0244 C.ar    1  UNL1       -0.0166
     20 C          -4.0861  -19.6755   22.1808 C.ar    1  UNL1       -0.0042
     21 C          -5.5749  -19.7324   22.0070 C.ar    1  UNL1       -0.0042
     22 C          -6.1877  -19.4082   20.6769 C.ar    1  UNL1       -0.0178
     23 C          -5.3117  -19.0271   19.5205 C.ar    1  UNL1       -0.0042
     24 C          -3.8229  -18.9702   19.6943 C.ar    1  UNL1       -0.0042
     25 C          -1.7213  -19.2375   21.1982 C.3     1  UNL1        0.0679
     26 O          -1.2279  -16.7577   20.6005 O.co2   1  UNL1       -0.5488
     27 C          -0.9171  -18.2172   20.4483 C.2     1  UNL1        0.0547
     28 O           0.1979  -18.6565   19.5461 O.co2   1  UNL1       -0.5488
@<TRIPOS>UNITY_ATOM_ATTR
26 1
charge -1
@<TRIPOS>BOND
     1    26    27   ar
     2    27    28   ar
     3    27    25    1
     4    25    19    1
     5    19    20   ar
     6    20    21   ar
     7    21    22   ar
     8    22    18    1
     9    18     1    1
    10     1     2   ar
    11     2     3   ar
    12     3     7    1
    13     7     8   ar
    14     8     9   ar
    15     9    10   ar
    16    10    11   ar
    17    11    12    1
    18    11    13   ar
    19     3     4   ar
    20     4     5   ar
    21     5    14    1
    22    14    15    1
    23    14    16    1
    24    14    17    1
    25     5     6   ar
    26    22    23   ar
    27    23    24   ar
    28    24    19   ar
    29     6     1   ar
    30    13     7   ar
@<TRIPOS>MOLECULE
*****
 28 30 0 0 0
SMALL
GASTEIGER

@<TRIPOS>ATOM
      1 C          -8.0141  -18.8604   21.3148 C.ar    1  UNL1       -0.0149
      2 C          -7.4087  -18.0736   22.4394 C.ar    1  UNL1        0.0152
      3 C          -8.2794  -17.2142   23.3073 C.ar    1  UNL1        0.0809
      4 N          -9.7555  -17.1415   23.0507 N.ar    1  UNL1       -0.2414
      5 C         -10.3609  -17.9283   21.9262 C.ar    1  UNL1        0.1523
      6 C          -9.4902  -18.7877   21.0583 C.ar    1  UNL1        0.0192
      7 C          -7.6740  -16.4274   24.4318 C.ar    1  UNL1        0.0185
      8 C          -6.2305  -16.0238   24.3727 C.ar    1  UNL1        0.0015
      9 C          -5.6251  -15.2371   25.4972 C.ar    1  UNL1        0.0009
     10 C          -6.4632  -14.8539   26.6807 C.ar    1  UNL1        0.0114
     11 C          -7.9066  -15.2575   26.7398 C.ar    1  UNL1        0.0577
     12 CL         -8.7447  -14.8742   27.9234 Cl      1  UNL1       -0.0822
     13 C          -8.5121  -16.0442   25.6153 C.ar    1  UNL1        0.0129
     14 C         -11.8370  -17.8556   21.6697 C.3     1  UNL1        0.4348
     15 F         -13.3132  -17.7830   21.4131 F       1  UNL1       -0.1644
     16 F         -12.0860  -17.7143   23.1421 F       1  UNL1       -0.1644
     17 F         -11.5881  -17.9969   20.1973 F       1  UNL1       -0.1644
     18 C          -7.1434  -19.7198   20.4469 C.3     1  UNL1        0.0527
     19 C          -2.6935  -19.0553   20.3646 C.ar    1  UNL1       -0.0166
     20 C          -3.3231  -19.7752   21.5201 C.ar    1  UNL1       -0.0042
     21 C          -4.8064  -19.9967   21.5476 C.ar    1  UNL1       -0.0042
     22 C          -5.6601  -19.4983   20.4195 C.ar    1  UNL1       -0.0178
     23 C          -5.0306  -18.7784   19.2639 C.ar    1  UNL1       -0.0042
     24 C          -3.5472  -18.5569   19.2365 C.ar    1  UNL1       -0.0042
     25 C          -1.2102  -18.8339   20.3371 C.3     1  UNL1        0.0679
     26 O           0.7325  -17.1422   19.9990 O.co2   1  UNL1       -0.5488
     27 C          -0.6562  -17.4470   20.4772 C.2     1  UNL1        0.0547
     28 O          -1.4910  -16.3648   21.0954 O.co2   1  UNL1       -0.5488
@<TRIPOS>UNITY_ATOM_ATTR
26 1
charge -1
@<TRIPOS>BOND
     1    26    27   ar
     2    27    28   ar
     3    27    25    1
     4    25    19    1
     5    19    20   ar
     6    20    21   ar
     7    21    22   ar
     8    22    18    1
     9    18     1    1
    10     1     2   ar
    11     2     3   ar
    12     3     7    1
    13     7     8   ar
    14     8     9   ar
    15     9    10   ar
    16    10    11   ar
    17    11    12    1
    18    11    13   ar
    19     3     4   ar
    20     4     5   ar
    21     5    14    1
    22    14    15    1
    23    14    16    1
    24    14    17    1
    25     5     6   ar
    26    22    23   ar
    27    23    24   ar
    28    24    19   ar
    29     6     1   ar
    30    13     7   ar
@<TRIPOS>MOLECULE
*****
 28 30 0 0 0
SMALL
GASTEIGER

@<TRIPOS>ATOM
      1 C          -6.4075  -15.7245   24.2487 C.ar    1  UNL1       -0.0149
      2 C          -7.3525  -16.1035   23.1472 C.ar    1  UNL1        0.0152
      3 C          -8.7613  -16.5033   23.4721 C.ar    1  UNL1        0.0809
      4 N          -9.2250  -16.5241   24.8985 N.ar    1  UNL1       -0.2414
      5 C          -8.2800  -16.1451   26.0000 C.ar    1  UNL1        0.1523
      6 C          -6.8712  -15.7453   25.6751 C.ar    1  UNL1        0.0192
      7 C          -9.7063  -16.8824   22.3706 C.ar    1  UNL1        0.0185
      8 C         -10.9949  -16.1343   22.1974 C.ar    1  UNL1        0.0015
      9 C         -11.9400  -16.5133   21.0960 C.ar    1  UNL1        0.0009
     10 C         -11.5964  -17.6403   20.1677 C.ar    1  UNL1        0.0114
     11 C         -10.3079  -18.3884   20.3409 C.ar    1  UNL1        0.0577
     12 CL         -9.9644  -19.5155   19.4126 Cl      1  UNL1       -0.0822
     13 C          -9.3628  -18.0094   21.4423 C.ar    1  UNL1        0.0129
     14 C          -8.7438  -16.1659   27.4263 C.3     1  UNL1        0.4348
     15 F          -9.2076  -16.1867   28.8527 F       1  UNL1       -0.1644
     16 F          -8.3282  -14.7331   27.5823 F       1  UNL1       -0.1644
     17 F          -9.1594  -17.5987   27.2703 F       1  UNL1       -0.1644
     18 C          -4.9987  -15.3247   23.9239 C.3     1  UNL1        0.0527
     19 C          -2.3653  -18.0935   21.5472 C.ar    1  UNL1       -0.0166
     20 C          -3.4786  -18.6513   22.3835 C.ar    1  UNL1       -0.0042
     21 C          -4.3564  -17.7284   23.1757 C.ar    1  UNL1       -0.0042
     22 C          -4.1209  -16.2477   23.1316 C.ar    1  UNL1       -0.0178
     23 C          -3.0077  -15.6899   22.2953 C.ar    1  UNL1       -0.0042
     24 C          -2.1299  -16.6128   21.5031 C.ar    1  UNL1       -0.0042
     25 C          -1.4875  -19.0165   20.7550 C.3     1  UNL1        0.0679
     26 O          -0.9191  -18.1108   18.3871 O.co2   1  UNL1       -0.5488
     27 C          -0.4923  -18.4548   19.7834 C.2     1  UNL1        0.0547
     28 O           0.9298  -18.2372   20.2079 O.co2   1  UNL1       -0.5488
@<TRIPOS>UNITY_ATOM_ATTR
26 1
charge -1
@<TRIPOS>BOND
     1    26    27   ar
     2    27    28   ar
     3    27    25    1
     4    25    19    1
     5    19    20   ar
     6    20    21   ar
     7    21    22   ar
     8    22    18    1
     9    18     1    1
    10     1     2   ar
    11     2     3   ar
    12     3     7    1
    13     7     8   ar
    14     8     9   ar
    15     9    10   ar
    16    10    11   ar
    17    11    12    1
    18    11    13   ar
    19     3     4   ar
    20     4     5   ar
    21     5    14    1
    22    14    15    1
    23    14    16    1
    24    14    17    1
    25     5     6   ar
    26    22    23   ar
    27    23    24   ar
    28    24    19   ar
    29     6     1   ar
    30    13     7   ar
@<TRIPOS>MOLECULE
*****
 28 30 0 0 0
SMALL
GASTEIGER

@<TRIPOS>ATOM
      1 C          -8.0533  -18.9767   21.0775 C.ar    1  UNL1       -0.0149
      2 C          -7.8471  -18.0855   22.2665 C.ar    1  UNL1        0.0152
      3 C          -6.4582  -17.7064   22.6876 C.ar    1  UNL1        0.0809
      4 N          -5.2756  -18.2184   21.9199 N.ar    1  UNL1       -0.2414
      5 C          -5.4819  -19.1095   20.7311 C.ar    1  UNL1        0.1523
      6 C          -6.8707  -19.4886   20.3099 C.ar    1  UNL1        0.0192
      7 C          -6.2519  -16.8153   23.8765 C.ar    1  UNL1        0.0185
      8 C          -4.8933  -16.2467   24.1608 C.ar    1  UNL1        0.0015
      9 C          -4.6870  -15.3556   25.3496 C.ar    1  UNL1        0.0009
     10 C          -5.8393  -15.0332   26.2542 C.ar    1  UNL1        0.0114
     11 C          -7.1979  -15.6018   25.9699 C.ar    1  UNL1        0.0577
     12 CL         -8.3502  -15.2793   26.8745 Cl      1  UNL1       -0.0822
     13 C          -7.4042  -16.4929   24.7810 C.ar    1  UNL1        0.0129
     14 C          -4.2993  -19.6215   19.9634 C.3     1  UNL1        0.4348
     15 F          -3.1167  -20.1335   19.1957 F       1  UNL1       -0.1644
     16 F          -3.5757  -18.3325   20.2184 F       1  UNL1       -0.1644
     17 F          -5.0228  -20.9105   19.7084 F       1  UNL1       -0.1644
     18 C          -9.4422  -19.3557   20.6564 C.3     1  UNL1        0.0527
     19 C         -12.9801  -17.9850   23.0759 C.ar    1  UNL1       -0.0166
     20 C         -11.9538  -18.8880   23.6933 C.ar    1  UNL1       -0.0042
     21 C         -10.7745  -19.3449   22.8868 C.ar    1  UNL1       -0.0042
     22 C         -10.6215  -18.8988   21.4629 C.ar    1  UNL1       -0.0178
     23 C         -11.6478  -17.9958   20.8455 C.ar    1  UNL1       -0.0042
     24 C         -12.8271  -17.5389   21.6520 C.ar    1  UNL1       -0.0042
     25 C         -14.1595  -17.5281   23.8823 C.3     1  UNL1        0.0679
     26 O         -14.4477  -18.8067   26.1256 O.co2   1  UNL1       -0.5488
     27 C         -14.9130  -18.5088   24.7310 C.2     1  UNL1        0.0547
     28 O         -16.1319  -19.1918   24.1851 O.co2   1  UNL1       -0.5488
@<TRIPOS>UNITY_ATOM_ATTR
26 1
charge -1
@<TRIPOS>BOND
     1    26    27   ar
     2    27    28   ar
     3    27    25    1
     4    25    19    1
     5    19    20   ar
     6    20    21   ar
     7    21    22   ar
     8    22    18    1
     9    18     1    1
    10     1     2   ar
    11     2     3   ar
    12     3     7    1
    13     7     8   ar
    14     8     9   ar
    15     9    10   ar
    16    10    11   ar
    17    11    12    1
    18    11    13   ar
    19     3     4   ar
    20     4     5   ar
    21     5    14    1
    22    14    15    1
    23    14    16    1
    24    14    17    1
    25     5     6   ar
    26    22    23   ar
    27    23    24   ar
    28    24    19   ar
    29     6     1   ar
    30    13     7   ar
@<TRIPOS>MOLECULE
*****
 28 30 0 0 0
SMALL
GASTEIGER

@<TRIPOS>ATOM
      1 C          -9.2569  -19.0018   21.2864 C.ar    1  UNL1       -0.0149
      2 C          -7.7867  -18.8433   21.5381 C.ar    1  UNL1        0.0152
      3 C          -6.7941  -19.4085   20.5659 C.ar    1  UNL1        0.0809
      4 N          -7.2717  -20.1322   19.3420 N.ar    1  UNL1       -0.2414
      5 C          -8.7418  -20.2908   19.0902 C.ar    1  UNL1        0.1523
      6 C          -9.7345  -19.7256   20.0625 C.ar    1  UNL1        0.0192
      7 C          -5.3238  -19.2499   20.8176 C.ar    1  UNL1        0.0185
      8 C          -4.7763  -19.4300   22.2025 C.ar    1  UNL1        0.0015
      9 C          -3.3061  -19.2715   22.4542 C.ar    1  UNL1        0.0009
     10 C          -2.3835  -18.9328   21.3211 C.ar    1  UNL1        0.0114
     11 C          -2.9310  -18.7527   19.9363 C.ar    1  UNL1        0.0577
     12 CL         -2.0083  -18.4141   18.8031 Cl      1  UNL1       -0.0822
     13 C          -4.4012  -18.9113   19.6845 C.ar    1  UNL1        0.0129
     14 C          -9.2194  -21.0145   17.8663 C.3     1  UNL1        0.4348
     15 F          -9.6970  -21.7383   16.6423 F       1  UNL1       -0.1644
     16 F         -10.3751  -20.0647   17.7555 F       1  UNL1       -0.1644
     17 F          -8.0638  -21.9644   17.9770 F       1  UNL1       -0.1644
     18 C         -10.2495  -18.4366   22.2587 C.3     1  UNL1        0.0527
     19 C          -8.8177  -16.3820   25.9974 C.ar    1  UNL1       -0.0166
     20 C          -8.8444  -15.6372   24.6957 C.ar    1  UNL1       -0.0042
     21 C          -9.3217  -16.3221   23.4494 C.ar    1  UNL1       -0.0042
     22 C          -9.7722  -17.7517   23.5049 C.ar    1  UNL1       -0.0178
     23 C          -9.7455  -18.4965   24.8067 C.ar    1  UNL1       -0.0042
     24 C          -9.2682  -17.8116   26.0529 C.ar    1  UNL1       -0.0042
     25 C          -8.3404  -15.6971   27.2437 C.3     1  UNL1        0.0679
     26 O          -5.8424  -15.8628   26.5489 O.co2   1  UNL1       -0.5488
     27 C          -6.9324  -15.1866   27.3266 C.2     1  UNL1        0.0547
     28 O          -6.6144  -13.9999   28.1872 O.co2   1  UNL1       -0.5488
@<TRIPOS>UNITY_ATOM_ATTR
26 1
charge -1
@<TRIPOS>BOND
     1    26    27   ar
     2    27    28   ar
     3    27    25    1
     4    25    19    1
     5    19    20   ar
     6    20    21   ar
     7    21    22   ar
     8    22    18    1
     9    18     1    1
    10     1     2   ar
    11     2     3   ar
    12     3     7    1
    13     7     8   ar
    14     8     9   ar
    15     9    10   ar
    16    10    11   ar
    17    11    12    1
    18    11    13   ar
    19     3     4   ar
    20     4     5   ar
    21     5    14    1
    22    14    15    1
    23    14    16    1
    24    14    17    1
    25     5     6   ar
    26    22    23   ar
    27    23    24   ar
    28    24    19   ar
    29     6     1   ar
    30    13     7   ar
@<TRIPOS>MOLECULE
*****
 28 30 0 0 0
SMALL
GASTEIGER

@<TRIPOS>ATOM
      1 C          -5.5573  -16.6344   24.3954 C.ar    1  UNL1       -0.0149
      2 C          -6.4380  -17.1103   23.2783 C.ar    1  UNL1        0.0152
      3 C          -7.9236  -16.9201   23.3613 C.ar    1  UNL1        0.0809
      4 N          -8.5285  -16.2541   24.5615 N.ar    1  UNL1       -0.2414
      5 C          -7.6479  -15.7782   25.6787 C.ar    1  UNL1        0.1523
      6 C          -6.1622  -15.9684   25.5956 C.ar    1  UNL1        0.0192
      7 C          -8.8043  -17.3959   22.2442 C.ar    1  UNL1        0.0185
      8 C          -8.4132  -18.6020   21.4426 C.ar    1  UNL1        0.0015
      9 C          -9.2939  -19.0779   20.3255 C.ar    1  UNL1        0.0009
     10 C         -10.5655  -18.3477   20.0099 C.ar    1  UNL1        0.0114
     11 C         -10.9566  -17.1416   20.8115 C.ar    1  UNL1        0.0577
     12 CL        -12.2284  -16.4114   20.4959 Cl      1  UNL1       -0.0822
     13 C         -10.0760  -16.6658   21.9286 C.ar    1  UNL1        0.0129
     14 C          -8.2528  -15.1122   26.8789 C.3     1  UNL1        0.4348
     15 F          -8.8577  -14.4462   28.0791 F       1  UNL1       -0.1644
     16 F          -7.0150  -15.4143   27.6704 F       1  UNL1       -0.1644
     17 F          -9.4906  -14.8101   26.0873 F       1  UNL1       -0.1644
     18 C          -4.0718  -16.8246   24.3123 C.3     1  UNL1        0.0527
     19 C          -2.1705  -18.0156   20.4115 C.ar    1  UNL1       -0.0166
     20 C          -2.9992  -19.0057   21.1751 C.ar    1  UNL1       -0.0042
     21 C          -3.6329  -18.6086   22.4754 C.ar    1  UNL1       -0.0042
     22 C          -3.4380  -17.2216   23.0121 C.ar    1  UNL1       -0.0178
     23 C          -2.6093  -16.2316   22.2485 C.ar    1  UNL1       -0.0042
     24 C          -1.9756  -16.6286   20.9482 C.ar    1  UNL1       -0.0042
     25 C          -1.5367  -18.4126   19.1112 C.3     1  UNL1        0.0679
     26 O          -1.0824  -17.8972   16.6056 O.co2   1  UNL1       -0.5488
     27 C          -1.8925  -17.6830   17.8499 C.2     1  UNL1        0.0547
     28 O          -3.0582  -16.7393   17.8327 O.co2   1  UNL1       -0.5488
@<TRIPOS>UNITY_ATOM_ATTR
26 1
charge -1
@<TRIPOS>BOND
     1    26    27   ar
     2    27    28   ar
     3    27    25    1
     4    25    19    1
     5    19    20   ar
     6    20    21   ar
     7    21    22   ar
     8    22    18    1
     9    18     1    1
    10     1     2   ar
    11     2     3   ar
    12     3     7    1
    13     7     8   ar
    14     8     9   ar
    15     9    10   ar
    16    10    11   ar
    17    11    12    1
    18    11    13   ar
    19     3     4   ar
    20     4     5   ar
    21     5    14    1
    22    14    15    1
    23    14    16    1
    24    14    17    1
    25     5     6   ar
    26    22    23   ar
    27    23    24   ar
    28    24    19   ar
    29     6     1   ar
    30    13     7   ar
@<TRIPOS>MOLECULE
*****
 28 30 0 0 0
SMALL
GASTEIGER

@<TRIPOS>ATOM
      1 C         -13.1704   -4.5452   19.7452 C.ar    1  UNL1       -0.0149
      2 C         -14.4574   -5.3157   19.7495 C.ar    1  UNL1        0.0152
      3 C         -14.4795   -6.7413   19.2836 C.ar    1  UNL1        0.0809
      4 N         -13.2147   -7.3964   18.8133 N.ar    1  UNL1       -0.2414
      5 C         -11.9278   -6.6259   18.8089 C.ar    1  UNL1        0.1523
      6 C         -11.9056   -5.2002   19.2749 C.ar    1  UNL1        0.0192
      7 C         -15.7665   -7.5119   19.2879 C.ar    1  UNL1        0.0185
      8 C         -17.0592   -6.8113   19.5846 C.ar    1  UNL1        0.0015
      9 C         -18.3461   -7.5818   19.5890 C.ar    1  UNL1        0.0009
     10 C         -18.3404   -9.0529   19.2965 C.ar    1  UNL1        0.0114
     11 C         -17.0477   -9.7536   18.9998 C.ar    1  UNL1        0.0577
     12 CL        -17.0420  -11.2249   18.7073 Cl      1  UNL1       -0.0822
     13 C         -15.7608   -8.9831   18.9954 C.ar    1  UNL1        0.0129
     14 C         -10.6630   -7.2810   18.3386 C.3     1  UNL1        0.4348
     15 F          -9.3982   -7.9360   17.8683 F       1  UNL1       -0.1644
     16 F         -11.4461   -8.0698   17.3314 F       1  UNL1       -0.1644
     17 F          -9.8799   -6.4921   19.3459 F       1  UNL1       -0.1644
     18 C         -13.1483   -3.1196   20.2112 C.3     1  UNL1        0.0527
     19 C         -12.4916    0.2053   17.2508 C.ar    1  UNL1       -0.0166
     20 C         -11.3218   -0.5724   17.7768 C.ar    1  UNL1       -0.0042
     21 C         -11.5407   -1.6807   18.7636 C.ar    1  UNL1       -0.0042
     22 C         -12.9294   -2.0113   19.2244 C.ar    1  UNL1       -0.0178
     23 C         -14.0991   -1.2335   18.6983 C.ar    1  UNL1       -0.0042
     24 C         -13.8802   -0.1252   17.7115 C.ar    1  UNL1       -0.0042
     25 C         -12.2727    1.3136   16.2640 C.3     1  UNL1        0.0679
     26 O         -11.9605    3.7321   17.1603 O.co2   1  UNL1       -0.5488
     27 C         -12.8283    2.6802   16.5355 C.2     1  UNL1        0.0547
     28 O         -14.2517    2.9948   16.1822 O.co2   1  UNL1       -0.5488
@<TRIPOS>UNITY_ATOM_ATTR
26 1
charge -1
@<TRIPOS>BOND
     1    26    27   ar
     2    27    28   ar
     3    27    25    1
     4    25    19    1
     5    19    20   ar
     6    20    21   ar
     7    21    22   ar
     8    22    18    1
     9    18     1    1
    10     1     2   ar
    11     2     3   ar
    12     3     7    1
    13     7     8   ar
    14     8     9   ar
    15     9    10   ar
    16    10    11   ar
    17    11    12    1
    18    11    13   ar
    19     3     4   ar
    20     4     5   ar
    21     5    14    1
    22    14    15    1
    23    14    16    1
    24    14    17    1
    25     5     6   ar
    26    22    23   ar
    27    23    24   ar
    28    24    19   ar
    29     6     1   ar
    30    13     7   ar
@<TRIPOS>MOLECULE
*****
 28 30 0 0 0
SMALL
GASTEIGER

@<TRIPOS>ATOM
      1 C          -6.1972  -19.1530   20.8039 C.ar    1  UNL1       -0.0149
      2 C          -6.4449  -18.2932   22.0078 C.ar    1  UNL1        0.0152
      3 C          -5.2919  -17.6519   22.7215 C.ar    1  UNL1        0.0809
      4 N          -3.8912  -17.8705   22.2314 N.ar    1  UNL1       -0.2414
      5 C          -3.6435  -18.7304   21.0275 C.ar    1  UNL1        0.1523
      6 C          -4.7965  -19.3717   20.3138 C.ar    1  UNL1        0.0192
      7 C          -5.5396  -16.7920   23.9254 C.ar    1  UNL1        0.0185
      8 C          -4.3840  -16.2923   24.7407 C.ar    1  UNL1        0.0015
      9 C          -4.6316  -15.4324   25.9445 C.ar    1  UNL1        0.0009
     10 C          -6.0349  -15.0723   26.3331 C.ar    1  UNL1        0.0114
     11 C          -7.1906  -15.5721   25.5178 C.ar    1  UNL1        0.0577
     12 CL         -8.5939  -15.2120   25.9065 Cl      1  UNL1       -0.0822
     13 C          -6.9429  -16.4320   24.3140 C.ar    1  UNL1        0.0129
     14 C          -2.2428  -18.9490   20.5374 C.3     1  UNL1        0.4348
     15 F          -0.8421  -19.1676   20.0473 F       1  UNL1       -0.1644
     16 F          -1.7344  -18.8469   21.9449 F       1  UNL1       -0.1644
     17 F          -2.7512  -19.0511   19.1299 F       1  UNL1       -0.1644
     18 C          -7.3502  -19.7943   20.0902 C.3     1  UNL1        0.0527
     19 C         -11.5718  -18.6861   21.1856 C.ar    1  UNL1       -0.0166
     20 C         -10.6282  -19.1807   22.2415 C.ar    1  UNL1       -0.0042
     21 C          -9.2210  -19.5501   21.8763 C.ar    1  UNL1       -0.0042
     22 C          -8.7574  -19.4249   20.4553 C.ar    1  UNL1       -0.0178
     23 C          -9.7010  -18.9303   19.3995 C.ar    1  UNL1       -0.0042
     24 C         -11.1082  -18.5609   19.7646 C.ar    1  UNL1       -0.0042
     25 C         -12.9790  -18.3167   21.5508 C.3     1  UNL1        0.0679
     26 O         -14.0390  -18.0442   23.9071 O.co2   1  UNL1       -0.5488
     27 C         -13.2432  -17.4802   22.7675 C.2     1  UNL1        0.0547
     28 O         -12.7115  -16.0797   22.8447 O.co2   1  UNL1       -0.5488
@<TRIPOS>UNITY_ATOM_ATTR
26 1
charge -1
@<TRIPOS>BOND
     1    26    27   ar
     2    27    28   ar
     3    27    25    1
     4    25    19    1
     5    19    20   ar
     6    20    21   ar
     7    21    22   ar
     8    22    18    1
     9    18     1    1
    10     1     2   ar
    11     2     3   ar
    12     3     7    1
    13     7     8   ar
    14     8     9   ar
    15     9    10   ar
    16    10    11   ar
    17    11    12    1
    18    11    13   ar
    19     3     4   ar
    20     4     5   ar
    21     5    14    1
    22    14    15    1
    23    14    16    1
    24    14    17    1
    25     5     6   ar
    26    22    23   ar
    27    23    24   ar
    28    24    19   ar
    29     6     1   ar
    30    13     7   ar
@<TRIPOS>MOLECULE
*****
 28 30 0 0 0
SMALL
GASTEIGER

@<TRIPOS>ATOM
      1 C          -6.8014  -19.2481   20.9606 C.ar    1  UNL1       -0.0149
      2 C          -6.7352  -18.4670   22.2396 C.ar    1  UNL1        0.0152
      3 C          -7.9521  -17.7497   22.7441 C.ar    1  UNL1        0.0809
      4 N          -9.2352  -17.8134   21.9698 N.ar    1  UNL1       -0.2414
      5 C          -9.3014  -18.5944   20.6910 C.ar    1  UNL1        0.1523
      6 C          -8.0845  -19.3118   20.1863 C.ar    1  UNL1        0.0192
      7 C          -7.8859  -16.9686   24.0231 C.ar    1  UNL1        0.0185
      8 C          -9.0716  -16.9309   24.9411 C.ar    1  UNL1        0.0015
      9 C          -9.0054  -16.1499   26.2200 C.ar    1  UNL1        0.0009
     10 C          -7.7536  -15.4066   26.5809 C.ar    1  UNL1        0.0114
     11 C          -6.5678  -15.4444   25.6629 C.ar    1  UNL1        0.0577
     12 CL         -5.3159  -14.7010   26.0239 Cl      1  UNL1       -0.0822
     13 C          -6.6340  -16.2254   24.3840 C.ar    1  UNL1        0.0129
     14 C         -10.5845  -18.6581   19.9166 C.3     1  UNL1        0.4348
     15 F         -11.8677  -18.7218   19.1423 F       1  UNL1       -0.1644
     16 F         -11.1430  -17.5431   20.7503 F       1  UNL1       -0.1644
     17 F         -10.0261  -19.7731   19.0830 F       1  UNL1       -0.1644
     18 C          -5.5845  -19.9654   20.4560 C.3     1  UNL1        0.0527
     19 C          -1.6169  -17.8463   20.3235 C.ar    1  UNL1       -0.0166
     20 C          -2.0442  -18.5610   21.5712 C.ar    1  UNL1       -0.0042
     21 C          -3.3667  -19.2673   21.6153 C.ar    1  UNL1       -0.0042
     22 C          -4.2620  -19.2590   20.4119 C.ar    1  UNL1       -0.0178
     23 C          -3.8347  -18.5444   19.1642 C.ar    1  UNL1       -0.0042
     24 C          -2.5121  -17.8380   19.1201 C.ar    1  UNL1       -0.0042
     25 C          -0.2943  -17.1400   20.2794 C.3     1  UNL1        0.0679
     26 O           0.9857  -19.2868   19.5703 O.co2   1  UNL1       -0.5488
     27 C           0.9775  -17.9326   20.2154 C.2     1  UNL1        0.0547
     28 O           2.2412  -17.3711   20.7966 O.co2   1  UNL1       -0.5488
@<TRIPOS>UNITY_ATOM_ATTR
26 1
charge -1
@<TRIPOS>BOND
     1    26    27   ar
     2    27    28   ar
     3    27    25    1
     4    25    19    1
     5    19    20   ar
     6    20    21   ar
     7    21    22   ar
     8    22    18    1
     9    18     1    1
    10     1     2   ar
    11     2     3   ar
    12     3     7    1
    13     7     8   ar
    14     8     9   ar
    15     9    10   ar
    16    10    11   ar
    17    11    12    1
    18    11    13   ar
    19     3     4   ar
    20     4     5   ar
    21     5    14    1
    22    14    15    1
    23    14    16    1
    24    14    17    1
    25     5     6   ar
    26    22    23   ar
    27    23    24   ar
    28    24    19   ar
    29     6     1   ar
    30    13     7   ar
