@<TRIPOS>MOLECULE
*****
 26 29 0 0 0
SMALL
GASTEIGER

@<TRIPOS>ATOM
      1 C         -17.4957   -6.7255   19.2903 C.ar    1  UNL1        0.0537
      2 C         -16.2344   -7.4930   19.5548 C.ar    1  UNL1        0.0061
      3 C         -14.9008   -6.8353   19.3570 C.ar    1  UNL1        0.0193
      4 C         -14.8285   -5.4102   18.8948 C.ar    1  UNL1        0.0824
      5 C         -16.0899   -4.6427   18.6302 C.ar    1  UNL1        0.0193
      6 C         -17.4235   -5.3003   18.8280 C.ar    1  UNL1        0.0061
      7 N         -13.4949   -4.7526   18.6970 N.ar    1  UNL1       -0.2341
      8 N         -13.2624   -3.2974   18.4173 N.ar    1  UNL1       -0.1617
      9 C         -11.7835   -3.0802   18.2916 C.ar    1  UNL1        0.1696
     10 C         -11.1021   -4.4011   18.4936 C.ar    1  UNL1        0.0148
     11 C         -12.1599   -5.4348   18.7441 C.ar    1  UNL1        0.0579
     12 C         -11.7707   -6.8636   18.9827 C.3     1  UNL1        0.0456
     13 C         -10.3237   -7.2587   18.9709 C.3     1  UNL1        0.0066
     14 C          -9.2660   -6.2251   18.7203 C.3     1  UNL1        0.0052
     15 C          -9.6552   -4.7963   18.4817 C.3     1  UNL1        0.0291
     16 C         -11.1051   -1.7717   18.0129 C.3     1  UNL1        0.4362
     17 F         -10.4266   -0.4632   17.7341 F       1  UNL1       -0.1644
     18 F         -10.7314   -2.2571   16.6437 F       1  UNL1       -0.1644
     19 F         -11.4788   -1.2863   19.3820 F       1  UNL1       -0.1644
     20 O         -19.8160   -6.8016   20.4568 O.2     1  UNL1       -0.2699
     21 C         -18.8293   -7.3831   19.4881 C.2     1  UNL1        0.2490
     22 N         -19.1760   -8.6223   18.7173 N.am    1  UNL1       -0.2761
     23 C         -20.4637   -9.3863   18.8090 C.3     1  UNL1        0.0938
     24 C         -20.3796  -10.5511   17.8678 C.3     1  UNL1        0.0233
     25 C         -19.0399  -10.5071   17.1943 C.3     1  UNL1        0.0233
     26 C         -18.2961   -9.3151   17.7193 C.3     1  UNL1        0.0938
@<TRIPOS>BOND
     1    20    21    2
     2    21     1    1
     3     1     2   ar
     4     2     3   ar
     5     3     4   ar
     6     4     7    1
     7     7     8   ar
     8     8     9   ar
     9     9    16    1
    10    16    17    1
    11    16    18    1
    12    16    19    1
    13     9    10   ar
    14    10    11   ar
    15    11    12    1
    16    12    13    1
    17    13    14    1
    18    14    15    1
    19     4     5   ar
    20     5     6   ar
    21    21    22   am
    22    22    23    1
    23    23    24    1
    24    24    25    1
    25    25    26    1
    26     6     1   ar
    27    26    22    1
    28    11     7   ar
    29    15    10    1
@<TRIPOS>MOLECULE
*****
 26 29 0 0 0
SMALL
GASTEIGER

@<TRIPOS>ATOM
      1 C           0.4826    2.4933   20.1758 C.ar    1  UNL1        0.0537
      2 C           1.9734    2.5419   20.0171 C.ar    1  UNL1        0.0061
      3 C           2.7771    1.2775   20.0910 C.ar    1  UNL1        0.0193
      4 C           2.0901   -0.0354   20.3234 C.ar    1  UNL1        0.0824
      5 C           0.5992   -0.0840   20.4821 C.ar    1  UNL1        0.0193
      6 C          -0.2045    1.1804   20.4083 C.ar    1  UNL1        0.0061
      7 N           2.8937   -1.2998   20.3973 N.ar    1  UNL1       -0.2341
      8 N           3.0945   -2.2833   19.2826 N.ar    1  UNL1       -0.1617
      9 C           3.9626   -3.3940   19.7952 C.ar    1  UNL1        0.1696
     10 C           4.2983   -3.0970   21.2267 C.ar    1  UNL1        0.0148
     11 C           3.6377   -1.8027   21.5988 C.ar    1  UNL1        0.0579
     12 C           3.7989   -1.2493   22.9836 C.3     1  UNL1        0.0456
     13 C           4.6208   -1.9902   23.9963 C.3     1  UNL1        0.0066
     14 C           5.2814   -3.2845   23.6242 C.3     1  UNL1        0.0052
     15 C           5.1201   -3.8379   22.2394 C.3     1  UNL1        0.0291
     16 C           4.4155   -4.5914   19.0136 C.3     1  UNL1        0.4362
     17 F           4.8683   -5.7890   18.2320 F       1  UNL1       -0.1644
     18 F           3.4311   -5.4472   19.7543 F       1  UNL1       -0.1644
     19 F           5.3998   -3.7358   18.2729 F       1  UNL1       -0.1644
     20 O          -0.6195    4.5308   21.3522 O.2     1  UNL1       -0.2699
     21 C          -0.3210    3.7577   20.1019 C.2     1  UNL1        0.2490
     22 N          -0.8262    4.2490   18.7778 N.am    1  UNL1       -0.2761
     23 C          -1.6380    5.4895   18.5489 C.3     1  UNL1        0.0938
     24 C          -1.9218    5.5932   17.0797 C.3     1  UNL1        0.0233
     25 C          -1.2855    4.4168   16.4005 C.3     1  UNL1        0.0233
     26 C          -0.6084    3.5861   17.4499 C.3     1  UNL1        0.0938
@<TRIPOS>BOND
     1    20    21    2
     2    21     1    1
     3     1     2   ar
     4     2     3   ar
     5     3     4   ar
     6     4     7    1
     7     7     8   ar
     8     8     9   ar
     9     9    16    1
    10    16    17    1
    11    16    18    1
    12    16    19    1
    13     9    10   ar
    14    10    11   ar
    15    11    12    1
    16    12    13    1
    17    13    14    1
    18    14    15    1
    19     4     5   ar
    20     5     6   ar
    21    21    22   am
    22    22    23    1
    23    23    24    1
    24    24    25    1
    25    25    26    1
    26     6     1   ar
    27    26    22    1
    28    11     7   ar
    29    15    10    1
@<TRIPOS>MOLECULE
*****
 26 29 0 0 0
SMALL
GASTEIGER

@<TRIPOS>ATOM
      1 C         -15.8813   -8.4005   18.0774 C.ar    1  UNL1        0.0537
      2 C         -15.3311   -7.9235   16.7661 C.ar    1  UNL1        0.0061
      3 C         -14.5118   -6.6683   16.7086 C.ar    1  UNL1        0.0193
      4 C         -14.2428   -5.8901   17.9624 C.ar    1  UNL1        0.0824
      5 C         -14.7931   -6.3673   19.2738 C.ar    1  UNL1        0.0193
      6 C         -15.6124   -7.6224   19.3312 C.ar    1  UNL1        0.0061
      7 N         -13.4235   -4.6350   17.9049 N.ar    1  UNL1       -0.2341
      8 N         -13.8802   -3.2647   18.3097 N.ar    1  UNL1       -0.1617
      9 C         -12.7426   -2.3126   18.0876 C.ar    1  UNL1        0.1696
     10 C         -11.5829   -3.0944   17.5455 C.ar    1  UNL1        0.0148
     11 C         -12.0037   -4.5297   17.4326 C.ar    1  UNL1        0.0579
     12 C         -11.0397   -5.5554   16.9144 C.3     1  UNL1        0.0456
     13 C          -9.6549   -5.1457   16.5090 C.3     1  UNL1        0.0066
     14 C          -9.2340   -3.7104   16.6218 C.3     1  UNL1        0.0052
     15 C         -10.1980   -2.6847   17.1401 C.3     1  UNL1        0.0291
     16 C         -12.7614   -0.8376   18.3597 C.3     1  UNL1        0.4362
     17 F         -12.7803    0.6374   18.6318 F       1  UNL1       -0.1644
     18 F         -13.7701   -0.6486   17.2657 F       1  UNL1       -0.1644
     19 F         -11.7528   -1.0265   19.4536 F       1  UNL1       -0.1644
     20 O         -16.0577  -10.9538   18.5242 O.2     1  UNL1       -0.2699
     21 C         -16.7006   -9.6557   18.1348 C.2     1  UNL1        0.2490
     22 N         -18.1628   -9.6127   17.8029 N.am    1  UNL1       -0.2761
     23 C         -19.1047  -10.7802   17.8165 C.3     1  UNL1        0.0938
     24 C         -20.4638  -10.2838   17.4211 C.3     1  UNL1        0.0233
     25 C         -20.3619   -8.8096   17.1631 C.3     1  UNL1        0.0233
     26 C         -18.9399   -8.3949   17.3991 C.3     1  UNL1        0.0938
@<TRIPOS>BOND
     1    20    21    2
     2    21     1    1
     3     1     2   ar
     4     2     3   ar
     5     3     4   ar
     6     4     7    1
     7     7     8   ar
     8     8     9   ar
     9     9    16    1
    10    16    17    1
    11    16    18    1
    12    16    19    1
    13     9    10   ar
    14    10    11   ar
    15    11    12    1
    16    12    13    1
    17    13    14    1
    18    14    15    1
    19     4     5   ar
    20     5     6   ar
    21    21    22   am
    22    22    23    1
    23    23    24    1
    24    24    25    1
    25    25    26    1
    26     6     1   ar
    27    26    22    1
    28    11     7   ar
    29    15    10    1
@<TRIPOS>MOLECULE
*****
 26 29 0 0 0
SMALL
GASTEIGER

@<TRIPOS>ATOM
      1 C           5.5138   -2.6344   20.2096 C.ar    1  UNL1        0.0537
      2 C           6.9524   -2.5554   20.6271 C.ar    1  UNL1        0.0061
      3 C           7.3916   -3.1675   21.9241 C.ar    1  UNL1        0.0193
      4 C           6.3924   -3.8587   22.8037 C.ar    1  UNL1        0.0824
      5 C           4.9537   -3.9377   22.3862 C.ar    1  UNL1        0.0193
      6 C           4.5145   -3.3256   21.0891 C.ar    1  UNL1        0.0061
      7 N           6.8316   -4.4708   24.1008 N.ar    1  UNL1       -0.2341
      8 N           6.4142   -4.0267   25.4714 N.ar    1  UNL1       -0.1617
      9 C           7.0900   -4.9160   26.4726 C.ar    1  UNL1        0.1696
     10 C           7.9250   -5.9097   25.7208 C.ar    1  UNL1        0.0148
     11 C           7.7653   -5.6346   24.2549 C.ar    1  UNL1        0.0579
     12 C           8.4908   -6.4793   23.2499 C.3     1  UNL1        0.0456
     13 C           9.3759   -7.5992   23.7107 C.3     1  UNL1        0.0066
     14 C           9.5356   -7.8743   25.1766 C.3     1  UNL1        0.0052
     15 C           8.8102   -7.0296   26.1816 C.3     1  UNL1        0.0291
     16 C           6.9545   -4.8272   27.9638 C.3     1  UNL1        0.4362
     17 F           6.8192   -4.7383   29.4551 F       1  UNL1       -0.1644
     18 F           8.1827   -3.9681   28.0242 F       1  UNL1       -0.1644
     19 F           5.7264   -5.6862   27.9035 F       1  UNL1       -0.1644
     20 O           5.5310   -2.6134   17.6116 O.2     1  UNL1       -0.2699
     21 C           5.0746   -2.0223   18.9125 C.2     1  UNL1        0.2490
     22 N           4.1790   -0.8190   18.9164 N.am    1  UNL1       -0.2761
     23 C           3.6605   -0.1018   17.7052 C.3     1  UNL1        0.0938
     24 C           2.8057    1.0387   18.1723 C.3     1  UNL1        0.0233
     25 C           2.7958    1.0265   19.6723 C.3     1  UNL1        0.0233
     26 C           3.6445   -0.1216   20.1322 C.3     1  UNL1        0.0938
@<TRIPOS>BOND
     1    20    21    2
     2    21     1    1
     3     1     2   ar
     4     2     3   ar
     5     3     4   ar
     6     4     7    1
     7     7     8   ar
     8     8     9   ar
     9     9    16    1
    10    16    17    1
    11    16    18    1
    12    16    19    1
    13     9    10   ar
    14    10    11   ar
    15    11    12    1
    16    12    13    1
    17    13    14    1
    18    14    15    1
    19     4     5   ar
    20     5     6   ar
    21    21    22   am
    22    22    23    1
    23    23    24    1
    24    24    25    1
    25    25    26    1
    26     6     1   ar
    27    26    22    1
    28    11     7   ar
    29    15    10    1
@<TRIPOS>MOLECULE
*****
 26 29 0 0 0
SMALL
GASTEIGER

@<TRIPOS>ATOM
      1 C           6.2715   -2.3601   27.0798 C.ar    1  UNL1        0.0537
      2 C           4.9899   -1.7112   26.6479 C.ar    1  UNL1        0.0061
      3 C           4.5039   -1.8755   25.2384 C.ar    1  UNL1        0.0193
      4 C           5.2994   -2.6887   24.2607 C.ar    1  UNL1        0.0824
      5 C           6.5810   -3.3376   24.6926 C.ar    1  UNL1        0.0193
      6 C           7.0670   -3.1733   26.1021 C.ar    1  UNL1        0.0061
      7 N           4.8133   -2.8530   22.8512 N.ar    1  UNL1       -0.2341
      8 N           5.2030   -3.9511   21.9066 N.ar    1  UNL1       -0.1617
      9 C           4.4828   -3.7248   20.6104 C.ar    1  UNL1        0.1696
     10 C           3.6481   -2.4868   20.7539 C.ar    1  UNL1        0.0148
     11 C           3.8524   -1.9479   22.1388 C.ar    1  UNL1        0.0579
     12 C           3.1370   -0.7029   22.5722 C.3     1  UNL1        0.0456
     13 C           2.2173    0.0034   21.6208 C.3     1  UNL1        0.0066
     14 C           2.0130   -0.5354   20.2359 C.3     1  UNL1        0.0052
     15 C           2.7284   -1.7805   19.8025 C.3     1  UNL1        0.0291
     16 C           4.5802   -4.5854   19.3857 C.3     1  UNL1        0.4362
     17 F           4.6775   -5.4460   18.1610 F       1  UNL1       -0.1644
     18 F           3.4772   -5.4564   19.9100 F       1  UNL1       -0.1644
     19 F           5.6830   -3.7145   18.8614 F       1  UNL1       -0.1644
     20 O           7.1085   -0.8326   29.0075 O.2     1  UNL1       -0.2699
     21 C           6.7575   -2.1958   28.4893 C.2     1  UNL1        0.2490
     22 N           6.8925   -3.3947   29.3806 N.am    1  UNL1       -0.2761
     23 C           7.3628   -3.3859   30.8050 C.3     1  UNL1        0.0938
     24 C           7.3418   -4.7986   31.3088 C.3     1  UNL1        0.0233
     25 C           6.8586   -5.6805   30.1957 C.3     1  UNL1        0.0233
     26 C           6.5808   -4.8129   29.0041 C.3     1  UNL1        0.0938
@<TRIPOS>BOND
     1    20    21    2
     2    21     1    1
     3     1     2   ar
     4     2     3   ar
     5     3     4   ar
     6     4     7    1
     7     7     8   ar
     8     8     9   ar
     9     9    16    1
    10    16    17    1
    11    16    18    1
    12    16    19    1
    13     9    10   ar
    14    10    11   ar
    15    11    12    1
    16    12    13    1
    17    13    14    1
    18    14    15    1
    19     4     5   ar
    20     5     6   ar
    21    21    22   am
    22    22    23    1
    23    23    24    1
    24    24    25    1
    25    25    26    1
    26     6     1   ar
    27    26    22    1
    28    11     7   ar
    29    15    10    1
@<TRIPOS>MOLECULE
*****
 26 29 0 0 0
SMALL
GASTEIGER

@<TRIPOS>ATOM
      1 C           0.4963    2.3839   19.2115 C.ar    1  UNL1        0.0537
      2 C          -0.0614    1.3305   20.1221 C.ar    1  UNL1        0.0061
      3 C           0.7208    0.0786   20.3883 C.ar    1  UNL1        0.0193
      4 C           2.0606   -0.1200   19.7440 C.ar    1  UNL1        0.0824
      5 C           2.6184    0.9335   18.8334 C.ar    1  UNL1        0.0193
      6 C           1.8362    2.1855   18.5672 C.ar    1  UNL1        0.0061
      7 N           2.8428   -1.3719   20.0102 N.ar    1  UNL1       -0.2341
      8 N           3.1179   -2.4665   19.0222 N.ar    1  UNL1       -0.1617
      9 C           3.9324   -3.5201   19.7125 C.ar    1  UNL1        0.1696
     10 C           4.1606   -3.0767   21.1272 C.ar    1  UNL1        0.0148
     11 C           3.4872   -1.7490   21.3112 C.ar    1  UNL1        0.0579
     12 C           3.5478   -1.0550   22.6395 C.3     1  UNL1        0.0456
     13 C           4.2818   -1.6886   23.7839 C.3     1  UNL1        0.0066
     14 C           4.9552   -3.0163   23.6000 C.3     1  UNL1        0.0052
     15 C           4.8946   -3.7103   22.2716 C.3     1  UNL1        0.0291
     16 C           4.4310   -4.7936   19.0964 C.3     1  UNL1        0.4362
     17 F           4.9296   -6.0671   18.4803 F       1  UNL1       -0.1644
     18 F           3.4262   -5.5723   19.8926 F       1  UNL1       -0.1644
     19 F           5.4358   -4.0149   18.3002 F       1  UNL1       -0.1644
     20 O          -1.2162    3.7035   17.7706 O.2     1  UNL1       -0.2699
     21 C          -0.2859    3.6359   18.9453 C.2     1  UNL1        0.2490
     22 N          -0.1377    4.8201   19.8539 N.am    1  UNL1       -0.2761
     23 C          -0.8506    6.1327   19.7149 C.3     1  UNL1        0.0938
     24 C          -0.4042    7.0236   20.8360 C.3     1  UNL1        0.0233
     25 C           0.5846    6.2617   21.6680 C.3     1  UNL1        0.0233
     26 C           0.7493    4.9000   21.0610 C.3     1  UNL1        0.0938
@<TRIPOS>BOND
     1    20    21    2
     2    21     1    1
     3     1     2   ar
     4     2     3   ar
     5     3     4   ar
     6     4     7    1
     7     7     8   ar
     8     8     9   ar
     9     9    16    1
    10    16    17    1
    11    16    18    1
    12    16    19    1
    13     9    10   ar
    14    10    11   ar
    15    11    12    1
    16    12    13    1
    17    13    14    1
    18    14    15    1
    19     4     5   ar
    20     5     6   ar
    21    21    22   am
    22    22    23    1
    23    23    24    1
    24    24    25    1
    25    25    26    1
    26     6     1   ar
    27    26    22    1
    28    11     7   ar
    29    15    10    1
@<TRIPOS>MOLECULE
*****
 26 29 0 0 0
SMALL
GASTEIGER

@<TRIPOS>ATOM
      1 C           0.3507    2.9532   19.5400 C.ar    1  UNL1        0.0537
      2 C           0.5692    2.0256   18.3817 C.ar    1  UNL1        0.0061
      3 C           1.3431    0.7551   18.5739 C.ar    1  UNL1        0.0193
      4 C           1.8985    0.4122   19.9244 C.ar    1  UNL1        0.0824
      5 C           1.6800    1.3399   21.0828 C.ar    1  UNL1        0.0193
      6 C           0.9061    2.6104   20.8905 C.ar    1  UNL1        0.0061
      7 N           2.6724   -0.8583   20.1166 N.ar    1  UNL1       -0.2341
      8 N           2.9625   -1.8824   19.0598 N.ar    1  UNL1       -0.1617
      9 C           3.7614   -2.9848   19.6895 C.ar    1  UNL1        0.1696
     10 C           3.9650   -2.6419   21.1355 C.ar    1  UNL1        0.0148
     11 C           3.2920   -1.3277   21.3995 C.ar    1  UNL1        0.0579
     12 C           3.3302   -0.7282   22.7739 C.3     1  UNL1        0.0456
     13 C           4.0416   -1.4429   23.8843 C.3     1  UNL1        0.0066
     14 C           4.7147   -2.7571   23.6204 C.3     1  UNL1        0.0052
     15 C           4.6764   -3.3567   22.2459 C.3     1  UNL1        0.0291
     16 C           4.2678   -4.2142   18.9951 C.3     1  UNL1        0.4362
     17 F           4.7743   -5.4436   18.3007 F       1  UNL1       -0.1644
     18 F           5.6447   -3.6209   18.9489 F       1  UNL1       -0.1644
     19 F           2.8910   -4.8074   19.0413 F       1  UNL1       -0.1644
     20 O           0.2520    5.4334   18.7726 O.2     1  UNL1       -0.2699
     21 C          -0.4232    4.2237   19.3477 C.2     1  UNL1        0.2490
     22 N          -1.8721    4.2845   19.7307 N.am    1  UNL1       -0.2761
     23 C          -2.7701    5.4787   19.5973 C.3     1  UNL1        0.0938
     24 C          -4.1305    5.0940   20.0984 C.3     1  UNL1        0.0233
     25 C          -4.0735    3.6620   20.5415 C.3     1  UNL1        0.0233
     26 C          -2.6778    3.1617   20.3142 C.3     1  UNL1        0.0938
@<TRIPOS>BOND
     1    20    21    2
     2    21     1    1
     3     1     2   ar
     4     2     3   ar
     5     3     4   ar
     6     4     7    1
     7     7     8   ar
     8     8     9   ar
     9     9    16    1
    10    16    17    1
    11    16    18    1
    12    16    19    1
    13     9    10   ar
    14    10    11   ar
    15    11    12    1
    16    12    13    1
    17    13    14    1
    18    14    15    1
    19     4     5   ar
    20     5     6   ar
    21    21    22   am
    22    22    23    1
    23    23    24    1
    24    24    25    1
    25    25    26    1
    26     6     1   ar
    27    26    22    1
    28    11     7   ar
    29    15    10    1
@<TRIPOS>MOLECULE
*****
 26 29 0 0 0
SMALL
GASTEIGER

@<TRIPOS>ATOM
      1 C           3.3139    0.0305   19.4071 C.ar    1  UNL1        0.0537
      2 C           2.9490    0.6079   20.7425 C.ar    1  UNL1        0.0061
      3 C           1.7087    1.4391   20.8867 C.ar    1  UNL1        0.0193
      4 C           0.8333    1.6929   19.6955 C.ar    1  UNL1        0.0824
      5 C           1.1982    1.1156   18.3599 C.ar    1  UNL1        0.0193
      6 C           2.4385    0.2844   18.2158 C.ar    1  UNL1        0.0061
      7 N          -0.4070    2.5241   19.8396 N.ar    1  UNL1       -0.2341
      8 N          -1.4607    2.3600   20.8945 N.ar    1  UNL1       -0.1617
      9 C          -2.5162    3.3998   20.6610 C.ar    1  UNL1        0.1696
     10 C          -2.1150    4.2066   19.4617 C.ar    1  UNL1        0.0148
     11 C          -0.8114    3.6653   18.9541 C.ar    1  UNL1        0.0579
     12 C          -0.1610    4.2816   17.7511 C.3     1  UNL1        0.0456
     13 C          -0.8142    5.4391   17.0558 C.3     1  UNL1        0.0066
     14 C          -2.1178    5.9803   17.5634 C.3     1  UNL1        0.0052
     15 C          -2.7682    5.3640   18.7664 C.3     1  UNL1        0.0291
     16 C          -3.7555    3.5982   21.4825 C.3     1  UNL1        0.4362
     17 F          -4.9948    3.7965   22.3040 F       1  UNL1       -0.1644
     18 F          -2.9489    4.3107   22.5273 F       1  UNL1       -0.1644
     19 F          -4.5621    2.8857   20.4377 F       1  UNL1       -0.1644
     20 O           5.8936   -0.1354   19.1471 O.2     1  UNL1       -0.2699
     21 C           4.5542   -0.8006   19.2629 C.2     1  UNL1        0.2490
     22 N           4.4550   -2.2971   19.2347 N.am    1  UNL1       -0.2761
     23 C           5.6018   -3.2543   19.0966 C.3     1  UNL1        0.0938
     24 C           5.0473   -4.6478   19.1161 C.3     1  UNL1        0.0233
     25 C           3.5578   -4.5520   19.2663 C.3     1  UNL1        0.0233
     26 C           3.1918   -3.0992   19.3395 C.3     1  UNL1        0.0938
@<TRIPOS>BOND
     1    20    21    2
     2    21     1    1
     3     1     2   ar
     4     2     3   ar
     5     3     4   ar
     6     4     7    1
     7     7     8   ar
     8     8     9   ar
     9     9    16    1
    10    16    17    1
    11    16    18    1
    12    16    19    1
    13     9    10   ar
    14    10    11   ar
    15    11    12    1
    16    12    13    1
    17    13    14    1
    18    14    15    1
    19     4     5   ar
    20     5     6   ar
    21    21    22   am
    22    22    23    1
    23    23    24    1
    24    24    25    1
    25    25    26    1
    26     6     1   ar
    27    26    22    1
    28    11     7   ar
    29    15    10    1
@<TRIPOS>MOLECULE
*****
 26 29 0 0 0
SMALL
GASTEIGER

@<TRIPOS>ATOM
      1 C           6.4143   -3.4597   23.9606 C.ar    1  UNL1        0.0537
      2 C           5.2579   -3.8879   23.1067 C.ar    1  UNL1        0.0061
      3 C           4.8465   -3.0553   21.9288 C.ar    1  UNL1        0.0193
      4 C           5.5915   -1.7945   21.6047 C.ar    1  UNL1        0.0824
      5 C           6.7481   -1.3662   22.4586 C.ar    1  UNL1        0.0193
      6 C           7.1595   -2.1988   23.6365 C.ar    1  UNL1        0.0061
      7 N           5.1802   -0.9619   20.4267 N.ar    1  UNL1       -0.2341
      8 N           6.1032   -0.3411   19.4205 N.ar    1  UNL1       -0.1617
      9 C           5.2670    0.4006   18.4201 C.ar    1  UNL1        0.1696
     10 C           3.8272    0.2381   18.8081 C.ar    1  UNL1        0.0148
     11 C           3.7735   -0.6039   20.0483 C.ar    1  UNL1        0.0579
     12 C           2.4507   -0.9360   20.6727 C.3     1  UNL1        0.0456
     13 C           1.1816   -0.4260   20.0570 C.3     1  UNL1        0.0066
     14 C           1.2353    0.4161   18.8168 C.3     1  UNL1        0.0052
     15 C           2.5581    0.7481   18.1923 C.3     1  UNL1        0.0291
     16 C           5.7804    1.1697   17.2390 C.3     1  UNL1        0.4362
     17 F           6.2939    1.9389   16.0580 F       1  UNL1       -0.1644
     18 F           5.2817    2.4445   17.8524 F       1  UNL1       -0.1644
     19 F           6.2792   -0.1050   16.6258 F       1  UNL1       -0.1644
     20 O           6.4764   -3.8496   26.5285 O.2     1  UNL1       -0.2699
     21 C           6.8257   -4.2923   25.1385 C.2     1  UNL1        0.2490
     22 N           7.5863   -5.5676   24.9264 N.am    1  UNL1       -0.2761
     23 C           8.0625   -6.4994   26.0013 C.3     1  UNL1        0.0938
     24 C           8.7748   -7.6427   25.3415 C.3     1  UNL1        0.0233
     25 C           8.7389   -7.4176   23.8588 C.3     1  UNL1        0.0233
     26 C           8.0045   -6.1351   23.6023 C.3     1  UNL1        0.0938
@<TRIPOS>BOND
     1    20    21    2
     2    21     1    1
     3     1     2   ar
     4     2     3   ar
     5     3     4   ar
     6     4     7    1
     7     7     8   ar
     8     8     9   ar
     9     9    16    1
    10    16    17    1
    11    16    18    1
    12    16    19    1
    13     9    10   ar
    14    10    11   ar
    15    11    12    1
    16    12    13    1
    17    13    14    1
    18    14    15    1
    19     4     5   ar
    20     5     6   ar
    21    21    22   am
    22    22    23    1
    23    23    24    1
    24    24    25    1
    25    25    26    1
    26     6     1   ar
    27    26    22    1
    28    11     7   ar
    29    15    10    1
