@<TRIPOS>MOLECULE
*****
 23 25 0 0 0
SMALL
GASTEIGER

@<TRIPOS>ATOM
      1 C          -7.0858  -18.0526   22.0843 C.3     1  UNL1        0.1896
      2 C          -5.8603  -18.8221   21.6893 C.3     1  UNL1        0.0472
      3 C          -4.6020  -18.6942   22.4958 C.3     1  UNL1        0.0211
      4 C          -3.3766  -19.4637   22.1009 C.3     1  UNL1        0.0687
      5 N          -3.4093  -20.3612   20.8995 N.3     1  UNL1       -0.2975
      6 C          -4.6675  -20.4892   20.0930 C.3     1  UNL1        0.0687
      7 C          -5.8930  -19.7196   20.4879 C.3     1  UNL1        0.0211
      8 H          -3.1719  -21.2981   21.2253 H       1  UNL1        0.1232
      9 C          -8.4157  -18.7431   22.1514 C.ar    1  UNL1        0.0363
     10 C          -8.7505  -19.6133   23.3263 C.ar    1  UNL1        0.0023
     11 C         -10.0804  -20.3039   23.3934 C.ar    1  UNL1        0.0205
     12 C         -11.0756  -20.1242   22.2856 C.ar    1  UNL1        0.0989
     13 N         -10.7408  -19.2539   21.1105 N.ar    1  UNL1       -0.2425
     14 C          -9.4109  -18.5634   21.0434 C.ar    1  UNL1        0.0980
     15 O          -6.9814  -16.5926   22.4120 O.3     1  UNL1       -0.4738
     16 CL         -8.6421  -15.3080   27.1652 Cl      1  UNL1       -0.0813
     17 C          -7.5180  -15.5163   26.1940 C.ar    1  UNL1        0.0712
     18 C          -6.1001  -15.2906   26.6284 C.ar    1  UNL1        0.0125
     19 C          -4.9760  -15.4989   25.6574 C.ar    1  UNL1        0.0040
     20 C          -5.2698  -15.9329   24.2520 C.ar    1  UNL1        0.0378
     21 C          -6.6877  -16.1586   23.8176 C.ar    1  UNL1        0.1501
     22 C          -7.8118  -15.9503   24.7886 C.ar    1  UNL1        0.1020
     23 CL         -9.2296  -16.1760   24.3542 Cl      1  UNL1       -0.0782
@<TRIPOS>BOND
     1    16    17    1
     2    17    18   ar
     3    18    19   ar
     4    19    20   ar
     5    20    21   ar
     6    21    15    1
     7    15     1    1
     8     1     9    1
     9     9    10   ar
    10    10    11   ar
    11    11    12   ar
    12    12    13   ar
    13    13    14   ar
    14     1     2    1
    15     2     3    1
    16     3     4    1
    17     4     5    1
    18     5     6    1
    19     6     7    1
    20    21    22   ar
    21    22    23    1
    22    22    17   ar
    23    14     9   ar
    24     7     2    1
    25     5     8    1
@<TRIPOS>MOLECULE
*****
 23 25 0 0 0
SMALL
GASTEIGER

@<TRIPOS>ATOM
      1 C          -7.2260  -18.0039   22.0332 C.3     1  UNL1        0.1896
      2 C          -8.5159  -18.7672   22.0942 C.3     1  UNL1        0.0472
      3 C          -8.8689  -19.5462   23.3265 C.3     1  UNL1        0.0211
      4 C         -10.1587  -20.3094   23.3874 C.3     1  UNL1        0.0687
      5 N         -11.0956  -20.2937   22.2161 N.3     1  UNL1       -0.2975
      6 C         -10.7426  -19.5147   20.9838 C.3     1  UNL1        0.0687
      7 C          -9.4528  -18.7515   20.9229 C.3     1  UNL1        0.0211
      8 H         -11.9837  -19.9231   22.5543 H       1  UNL1        0.1232
      9 C          -5.9616  -18.6996   21.6243 C.ar    1  UNL1        0.0363
     10 C          -5.8287  -19.2616   20.2400 C.ar    1  UNL1        0.0023
     11 C          -4.5642  -19.9572   19.8311 C.ar    1  UNL1        0.0205
     12 C          -3.4326  -20.0909   20.8066 C.ar    1  UNL1        0.0989
     13 N          -3.5655  -19.5289   22.1910 N.ar    1  UNL1       -0.2425
     14 C          -4.8299  -18.8333   22.5999 C.ar    1  UNL1        0.0980
     15 O          -7.2006  -16.5451   22.3811 O.3     1  UNL1       -0.4738
     16 CL         -8.5864  -15.3261   27.2384 Cl      1  UNL1       -0.0813
     17 C          -7.5216  -15.5016   26.1966 C.ar    1  UNL1        0.0712
     18 C          -6.0849  -15.2432   26.5416 C.ar    1  UNL1        0.0125
     19 C          -5.0201  -15.4186   25.4998 C.ar    1  UNL1        0.0040
     20 C          -5.3920  -15.8526   24.1130 C.ar    1  UNL1        0.0378
     21 C          -6.8287  -16.1111   23.7680 C.ar    1  UNL1        0.1501
     22 C          -7.8935  -15.9356   24.8098 C.ar    1  UNL1        0.1020
     23 CL         -9.3303  -16.1941   24.4647 Cl      1  UNL1       -0.0782
@<TRIPOS>BOND
     1    16    17    1
     2    17    18   ar
     3    18    19   ar
     4    19    20   ar
     5    20    21   ar
     6    21    15    1
     7    15     1    1
     8     1     9    1
     9     9    10   ar
    10    10    11   ar
    11    11    12   ar
    12    12    13   ar
    13    13    14   ar
    14     1     2    1
    15     2     3    1
    16     3     4    1
    17     4     5    1
    18     5     6    1
    19     6     7    1
    20    21    22   ar
    21    22    23    1
    22    22    17   ar
    23    14     9   ar
    24     7     2    1
    25     5     8    1
@<TRIPOS>MOLECULE
*****
 23 25 0 0 0
SMALL
GASTEIGER

@<TRIPOS>ATOM
      1 C          -8.2721  -17.2980   22.0001 C.3     1  UNL1        0.1896
      2 C          -9.7589  -17.4632   22.1121 C.3     1  UNL1        0.0472
      3 C         -10.3308  -18.5123   23.0188 C.3     1  UNL1        0.0211
      4 C         -11.8174  -18.6774   23.1307 C.3     1  UNL1        0.0687
      5 N         -12.7322  -17.7934   22.3359 N.3     1  UNL1       -0.2975
      6 C         -12.1603  -16.7443   21.4292 C.3     1  UNL1        0.0687
      7 C         -10.6736  -16.5791   21.3173 C.3     1  UNL1        0.0211
      8 H         -13.3296  -17.3094   23.0062 H       1  UNL1        0.1232
      9 C          -7.4275  -18.4308   21.4968 C.ar    1  UNL1        0.0363
     10 C          -6.1337  -18.7626   22.1794 C.ar    1  UNL1        0.0023
     11 C          -5.2891  -19.8954   21.6760 C.ar    1  UNL1        0.0205
     12 C          -5.7383  -20.6964   20.4901 C.ar    1  UNL1        0.0989
     13 N          -7.0321  -20.3647   19.8074 N.ar    1  UNL1       -0.2425
     14 C          -7.8768  -19.2319   20.3108 C.ar    1  UNL1        0.0980
     15 O          -7.6301  -16.0001   22.3915 O.3     1  UNL1       -0.4738
     16 CL         -8.4231  -15.1637   27.4583 Cl      1  UNL1       -0.0813
     17 C          -7.4852  -15.4013   26.3120 C.ar    1  UNL1        0.0712
     18 C          -6.0057  -15.4582   26.5530 C.ar    1  UNL1        0.0125
     19 C          -5.0678  -15.6957   25.4068 C.ar    1  UNL1        0.0040
     20 C          -5.6092  -15.8764   24.0197 C.ar    1  UNL1        0.0378
     21 C          -7.0887  -15.8195   23.7787 C.ar    1  UNL1        0.1501
     22 C          -8.0266  -15.5819   24.9249 C.ar    1  UNL1        0.1020
     23 CL         -9.5061  -15.5250   24.6840 Cl      1  UNL1       -0.0782
@<TRIPOS>BOND
     1    16    17    1
     2    17    18   ar
     3    18    19   ar
     4    19    20   ar
     5    20    21   ar
     6    21    15    1
     7    15     1    1
     8     1     9    1
     9     9    10   ar
    10    10    11   ar
    11    11    12   ar
    12    12    13   ar
    13    13    14   ar
    14     1     2    1
    15     2     3    1
    16     3     4    1
    17     4     5    1
    18     5     6    1
    19     6     7    1
    20    21    22   ar
    21    22    23    1
    22    22    17   ar
    23    14     9   ar
    24     7     2    1
    25     5     8    1
@<TRIPOS>MOLECULE
*****
 23 25 0 0 0
SMALL
GASTEIGER

@<TRIPOS>ATOM
      1 C          -6.5149  -18.5732   22.4598 C.3     1  UNL1        0.1896
      2 C          -6.6016  -17.2158   23.0923 C.3     1  UNL1        0.0472
      3 C          -5.4387  -16.6754   23.8705 C.3     1  UNL1        0.0211
      4 C          -5.5254  -15.3180   24.5029 C.3     1  UNL1        0.0687
      5 N          -6.7749  -14.5010   24.3571 N.3     1  UNL1       -0.2975
      6 C          -7.9378  -15.0415   23.5789 C.3     1  UNL1        0.0687
      7 C          -7.8511  -16.3988   22.9465 C.3     1  UNL1        0.0211
      8 H          -6.5035  -13.6250   23.9107 H       1  UNL1        0.1232
      9 C          -5.2842  -18.9690   21.6991 C.ar    1  UNL1        0.0363
     10 C          -4.0221  -19.3047   22.4367 C.ar    1  UNL1        0.0023
     11 C          -2.7914  -19.7005   21.6759 C.ar    1  UNL1        0.0205
     12 C          -2.8228  -19.7605   20.1775 C.ar    1  UNL1        0.0989
     13 N          -4.0850  -19.4247   19.4398 N.ar    1  UNL1       -0.2425
     14 C          -5.3157  -19.0289   20.2005 C.ar    1  UNL1        0.0980
     15 O          -7.6589  -19.5348   22.5882 O.3     1  UNL1       -0.4738
     16 CL        -12.6431  -18.2582   23.3152 Cl      1  UNL1       -0.0813
     17 C         -11.4960  -18.5410   22.3909 C.ar    1  UNL1        0.0712
     18 C         -11.6941  -18.4684   20.9058 C.ar    1  UNL1        0.0125
     19 C         -10.5471  -18.7513   19.9815 C.ar    1  UNL1        0.0040
     20 C          -9.2021  -19.1068   20.5423 C.ar    1  UNL1        0.0378
     21 C          -9.0040  -19.1793   22.0274 C.ar    1  UNL1        0.1501
     22 C         -10.1510  -18.8965   22.9517 C.ar    1  UNL1        0.1020
     23 CL         -9.9530  -18.9691   24.4368 Cl      1  UNL1       -0.0782
@<TRIPOS>BOND
     1    16    17    1
     2    17    18   ar
     3    18    19   ar
     4    19    20   ar
     5    20    21   ar
     6    21    15    1
     7    15     1    1
     8     1     9    1
     9     9    10   ar
    10    10    11   ar
    11    11    12   ar
    12    12    13   ar
    13    13    14   ar
    14     1     2    1
    15     2     3    1
    16     3     4    1
    17     4     5    1
    18     5     6    1
    19     6     7    1
    20    21    22   ar
    21    22    23    1
    22    22    17   ar
    23    14     9   ar
    24     7     2    1
    25     5     8    1
@<TRIPOS>MOLECULE
*****
 23 25 0 0 0
SMALL
GASTEIGER

@<TRIPOS>ATOM
      1 C          -8.2927  -16.7153   23.5588 C.3     1  UNL1        0.1896
      2 C          -9.6929  -17.2528   23.5332 C.3     1  UNL1        0.0472
      3 C         -10.7911  -16.4548   22.8952 C.3     1  UNL1        0.0211
      4 C         -12.1912  -16.9924   22.8696 C.3     1  UNL1        0.0687
      5 N         -12.4931  -18.3280   23.4820 N.3     1  UNL1       -0.2975
      6 C         -11.3949  -19.1260   24.1200 C.3     1  UNL1        0.0687
      7 C          -9.9948  -18.5884   24.1456 C.3     1  UNL1        0.0211
      8 H         -12.8875  -18.9088   22.7420 H       1  UNL1        0.1232
      9 C          -7.7415  -16.1186   24.8198 C.ar    1  UNL1        0.0363
     10 C          -8.4747  -16.2955   26.1163 C.ar    1  UNL1        0.0023
     11 C          -7.9235  -15.6988   27.3773 C.ar    1  UNL1        0.0205
     12 C          -6.6389  -14.9252   27.3418 C.ar    1  UNL1        0.0989
     13 N          -5.9055  -14.7482   26.0452 N.ar    1  UNL1       -0.2425
     14 C          -6.4568  -15.3449   24.7843 C.ar    1  UNL1        0.0980
     15 O          -7.4439  -16.7744   22.3236 O.3     1  UNL1       -0.4738
     16 CL         -6.0230  -21.3143   20.2329 Cl      1  UNL1       -0.0813
     17 C          -5.7214  -20.1394   21.1154 C.ar    1  UNL1        0.0712
     18 C          -4.4077  -20.0596   21.8350 C.ar    1  UNL1        0.0125
     19 C          -4.1061  -18.8848   22.7175 C.ar    1  UNL1        0.0040
     20 C          -5.1182  -17.7898   22.8803 C.ar    1  UNL1        0.0378
     21 C          -6.4318  -17.8695   22.1607 C.ar    1  UNL1        0.1501
     22 C          -6.7335  -19.0443   21.2782 C.ar    1  UNL1        0.1020
     23 CL         -8.0472  -19.1241   20.5586 Cl      1  UNL1       -0.0782
@<TRIPOS>BOND
     1    16    17    1
     2    17    18   ar
     3    18    19   ar
     4    19    20   ar
     5    20    21   ar
     6    21    15    1
     7    15     1    1
     8     1     9    1
     9     9    10   ar
    10    10    11   ar
    11    11    12   ar
    12    12    13   ar
    13    13    14   ar
    14     1     2    1
    15     2     3    1
    16     3     4    1
    17     4     5    1
    18     5     6    1
    19     6     7    1
    20    21    22   ar
    21    22    23    1
    22    22    17   ar
    23    14     9   ar
    24     7     2    1
    25     5     8    1
@<TRIPOS>MOLECULE
*****
 23 25 0 0 0
SMALL
GASTEIGER

@<TRIPOS>ATOM
      1 C          -8.3872  -16.6604   23.5301 C.3     1  UNL1        0.1896
      2 C          -9.7889  -17.1940   23.5035 C.3     1  UNL1        0.0472
      3 C         -10.0974  -18.5231   24.1265 C.3     1  UNL1        0.0211
      4 C         -11.4990  -19.0566   24.0999 C.3     1  UNL1        0.0687
      5 N         -12.5921  -18.2610   23.4503 N.3     1  UNL1       -0.2975
      6 C         -12.2836  -16.9318   22.8272 C.3     1  UNL1        0.0687
      7 C         -10.8820  -16.3983   22.8539 C.3     1  UNL1        0.0211
      8 H         -13.2996  -18.0937   24.1657 H       1  UNL1        0.1232
      9 C          -7.8187  -16.1088   24.8039 C.ar    1  UNL1        0.0363
     10 C          -8.5409  -16.3211   26.1013 C.ar    1  UNL1        0.0023
     11 C          -7.9725  -15.7694   27.3751 C.ar    1  UNL1        0.0205
     12 C          -6.6819  -15.0055   27.3516 C.ar    1  UNL1        0.0989
     13 N          -5.9596  -14.7931   26.0541 N.ar    1  UNL1       -0.2425
     14 C          -6.5280  -15.3448   24.7803 C.ar    1  UNL1        0.0980
     15 O          -7.5540  -16.6785   22.2830 O.3     1  UNL1       -0.4738
     16 CL         -3.5756  -20.0172   22.1225 Cl      1  UNL1       -0.0813
     17 C          -4.9688  -19.6360   21.7176 C.ar    1  UNL1        0.0712
     18 C          -5.7658  -20.5429   20.8275 C.ar    1  UNL1        0.0125
     19 C          -7.1589  -20.1617   20.4226 C.ar    1  UNL1        0.0040
     20 C          -7.7549  -18.8736   20.9077 C.ar    1  UNL1        0.0378
     21 C          -6.9579  -17.9666   21.7978 C.ar    1  UNL1        0.1501
     22 C          -5.5648  -18.3479   22.2027 C.ar    1  UNL1        0.1020
     23 CL         -4.7678  -17.4409   23.0928 Cl      1  UNL1       -0.0782
@<TRIPOS>BOND
     1    16    17    1
     2    17    18   ar
     3    18    19   ar
     4    19    20   ar
     5    20    21   ar
     6    21    15    1
     7    15     1    1
     8     1     9    1
     9     9    10   ar
    10    10    11   ar
    11    11    12   ar
    12    12    13   ar
    13    13    14   ar
    14     1     2    1
    15     2     3    1
    16     3     4    1
    17     4     5    1
    18     5     6    1
    19     6     7    1
    20    21    22   ar
    21    22    23    1
    22    22    17   ar
    23    14     9   ar
    24     7     2    1
    25     5     8    1
@<TRIPOS>MOLECULE
*****
 23 25 0 0 0
SMALL
GASTEIGER

@<TRIPOS>ATOM
      1 C          -6.9389  -18.6329   22.3396 C.3     1  UNL1        0.1896
      2 C          -7.1713  -17.2295   22.8157 C.3     1  UNL1        0.0472
      3 C          -8.0120  -16.2909   22.0019 C.3     1  UNL1        0.0211
      4 C          -8.2443  -14.8876   22.4780 C.3     1  UNL1        0.0687
      5 N          -7.6358  -14.4228   23.7678 N.3     1  UNL1       -0.2975
      6 C          -6.7951  -15.3613   24.5816 C.3     1  UNL1        0.0687
      7 C          -6.5628  -16.7647   24.1055 C.3     1  UNL1        0.0211
      8 H          -8.4061  -14.1237   24.3658 H       1  UNL1        0.1232
      9 C          -5.6026  -19.0241   21.7819 C.ar    1  UNL1        0.0363
     10 C          -5.4823  -19.4430   20.3467 C.ar    1  UNL1        0.0023
     11 C          -4.1459  -19.8342   19.7890 C.ar    1  UNL1        0.0205
     12 C          -2.9298  -19.8065   20.6666 C.ar    1  UNL1        0.0989
     13 N          -3.0500  -19.3876   22.1020 N.ar    1  UNL1       -0.2425
     14 C          -4.3864  -18.9964   22.6596 C.ar    1  UNL1        0.0980
     15 O          -8.0430  -19.6450   22.4212 O.3     1  UNL1       -0.4738
     16 CL        -12.8021  -17.8711   21.3234 Cl      1  UNL1       -0.0813
     17 C         -11.7901  -18.3411   22.3260 C.ar    1  UNL1        0.0712
     18 C         -12.1458  -18.3942   23.7822 C.ar    1  UNL1        0.0125
     19 C         -11.1340  -18.8642   24.7848 C.ar    1  UNL1        0.0040
     20 C          -9.7664  -19.2811   24.3311 C.ar    1  UNL1        0.0378
     21 C          -9.4107  -19.2280   22.8749 C.ar    1  UNL1        0.1501
     22 C         -10.4225  -18.7580   21.8723 C.ar    1  UNL1        0.1020
     23 CL        -10.0668  -18.7050   20.4160 Cl      1  UNL1       -0.0782
@<TRIPOS>BOND
     1    16    17    1
     2    17    18   ar
     3    18    19   ar
     4    19    20   ar
     5    20    21   ar
     6    21    15    1
     7    15     1    1
     8     1     9    1
     9     9    10   ar
    10    10    11   ar
    11    11    12   ar
    12    12    13   ar
    13    13    14   ar
    14     1     2    1
    15     2     3    1
    16     3     4    1
    17     4     5    1
    18     5     6    1
    19     6     7    1
    20    21    22   ar
    21    22    23    1
    22    22    17   ar
    23    14     9   ar
    24     7     2    1
    25     5     8    1
@<TRIPOS>MOLECULE
*****
 23 25 0 0 0
SMALL
GASTEIGER

@<TRIPOS>ATOM
      1 C          -7.8728  -18.4616   22.0334 C.3     1  UNL1        0.1896
      2 C          -6.5219  -19.0178   21.6932 C.3     1  UNL1        0.0472
      3 C          -5.3212  -18.6160   22.4974 C.3     1  UNL1        0.0211
      4 C          -3.9703  -19.1722   22.1572 C.3     1  UNL1        0.0687
      5 N          -3.8202  -20.1302   21.0128 N.3     1  UNL1       -0.2975
      6 C          -5.0209  -20.5320   20.2085 C.3     1  UNL1        0.0687
      7 C          -6.3717  -19.9758   20.5488 C.3     1  UNL1        0.0211
      8 H          -3.4226  -20.9875   21.3966 H       1  UNL1        0.1232
      9 C          -7.9970  -17.3555   23.0389 C.ar    1  UNL1        0.0363
     10 C          -8.5276  -17.6457   24.4115 C.ar    1  UNL1        0.0023
     11 C          -8.6518  -16.5396   25.4171 C.ar    1  UNL1        0.0205
     12 C          -8.2452  -15.1432   25.0500 C.ar    1  UNL1        0.0989
     13 N          -7.7145  -14.8529   23.6773 N.ar    1  UNL1       -0.2425
     14 C          -7.5904  -15.9591   22.6718 C.ar    1  UNL1        0.0980
     15 O          -9.0996  -19.0116   21.3681 O.3     1  UNL1       -0.4738
     16 CL        -13.6954  -18.0003   23.5717 Cl      1  UNL1       -0.0813
     17 C         -12.6800  -17.7288   22.5015 C.ar    1  UNL1        0.0712
     18 C         -12.9473  -16.6801   21.4628 C.ar    1  UNL1        0.0125
     19 C         -11.9320  -16.4085   20.3926 C.ar    1  UNL1        0.0040
     20 C         -10.6495  -17.1857   20.3611 C.ar    1  UNL1        0.0378
     21 C         -10.3822  -18.2344   21.3997 C.ar    1  UNL1        0.1501
     22 C         -11.3975  -18.5059   22.4699 C.ar    1  UNL1        0.1020
     23 CL        -11.1302  -19.5546   23.5086 Cl      1  UNL1       -0.0782
@<TRIPOS>BOND
     1    16    17    1
     2    17    18   ar
     3    18    19   ar
     4    19    20   ar
     5    20    21   ar
     6    21    15    1
     7    15     1    1
     8     1     9    1
     9     9    10   ar
    10    10    11   ar
    11    11    12   ar
    12    12    13   ar
    13    13    14   ar
    14     1     2    1
    15     2     3    1
    16     3     4    1
    17     4     5    1
    18     5     6    1
    19     6     7    1
    20    21    22   ar
    21    22    23    1
    22    22    17   ar
    23    14     9   ar
    24     7     2    1
    25     5     8    1
@<TRIPOS>MOLECULE
*****
 23 25 0 0 0
SMALL
GASTEIGER

@<TRIPOS>ATOM
      1 C          -6.2487  -18.7513   22.2666 C.3     1  UNL1        0.1896
      2 C          -4.9533  -19.0473   21.5706 C.3     1  UNL1        0.0472
      3 C          -4.8904  -19.0490   20.0719 C.3     1  UNL1        0.0211
      4 C          -3.5950  -19.3450   19.3760 C.3     1  UNL1        0.0687
      5 N          -2.3625  -19.6393   20.1787 N.3     1  UNL1       -0.2975
      6 C          -2.4254  -19.6377   21.6774 C.3     1  UNL1        0.0687
      7 C          -3.7208  -19.3417   22.3733 C.3     1  UNL1        0.0211
      8 H          -1.6648  -18.9445   19.9125 H       1  UNL1        0.1232
      9 C          -6.4475  -17.4318   22.9516 C.ar    1  UNL1        0.0363
     10 C          -5.3723  -16.8776   23.8386 C.ar    1  UNL1        0.0023
     11 C          -5.5712  -15.5581   24.5236 C.ar    1  UNL1        0.0205
     12 C          -6.8453  -14.7927   24.3217 C.ar    1  UNL1        0.0989
     13 N          -7.9206  -15.3469   23.4347 N.ar    1  UNL1       -0.2425
     14 C          -7.7217  -16.6664   22.7497 C.ar    1  UNL1        0.0980
     15 O          -7.3451  -19.7749   22.2775 O.3     1  UNL1       -0.4738
     16 CL        -12.3314  -18.5969   23.1437 Cl      1  UNL1       -0.0813
     17 C         -11.1992  -18.8326   22.1883 C.ar    1  UNL1        0.0712
     18 C         -11.4281  -18.7150   20.7105 C.ar    1  UNL1        0.0125
     19 C         -10.2961  -18.9507   19.7551 C.ar    1  UNL1        0.0040
     20 C          -8.9351  -19.3039   20.2775 C.ar    1  UNL1        0.0378
     21 C          -8.7062  -19.4216   21.7552 C.ar    1  UNL1        0.1501
     22 C          -9.8383  -19.1859   22.7106 C.ar    1  UNL1        0.1020
     23 CL         -9.6093  -19.3035   24.1884 Cl      1  UNL1       -0.0782
@<TRIPOS>BOND
     1    16    17    1
     2    17    18   ar
     3    18    19   ar
     4    19    20   ar
     5    20    21   ar
     6    21    15    1
     7    15     1    1
     8     1     9    1
     9     9    10   ar
    10    10    11   ar
    11    11    12   ar
    12    12    13   ar
    13    13    14   ar
    14     1     2    1
    15     2     3    1
    16     3     4    1
    17     4     5    1
    18     5     6    1
    19     6     7    1
    20    21    22   ar
    21    22    23    1
    22    22    17   ar
    23    14     9   ar
    24     7     2    1
    25     5     8    1
