@<TRIPOS>MOLECULE
*****
 24 25 0 0 0
SMALL
GASTEIGER

@<TRIPOS>ATOM
      1 C          -9.9945  -18.6964   21.7083 C.ar    1  UNL1        0.2628
      2 N         -10.5709  -19.1900   20.4144 N.ar    1  UNL1       -0.2035
      3 C          -9.4333  -19.5998   19.5266 C.ar    1  UNL1        0.1091
      4 C          -8.1539  -19.3593   20.2719 C.ar    1  UNL1        0.0527
      5 S          -8.5007  -18.8011   21.6202 S.2     1  UNL1       -0.0283
      6 C          -6.7706  -19.6297   19.7589 C.2     1  UNL1        0.0052
      7 C          -5.5787  -19.1064   20.5042 C.2     1  UNL1       -0.0064
      8 C          -4.1952  -19.3768   19.9912 C.3     1  UNL1        0.0939
      9 C          -3.7618  -20.7847   19.7088 C.3     1  UNL1        0.0262
     10 N          -3.2452  -18.2390   19.7608 N.am    1  UNL1       -0.3022
     11 C          -2.0046  -18.1171   20.5950 C.2     1  UNL1        0.2232
     12 C          -1.0546  -16.9794   20.3646 C.3     1  UNL1        0.0946
     13 O          -1.7140  -19.1330   21.6598 O.2     1  UNL1       -0.2751
     14 H          -3.4360  -17.5723   19.0619 H       1  UNL1        0.1497
     15 O         -10.7749  -18.1875   22.8839 O.3     1  UNL1       -0.4313
     16 C          -8.6428  -16.1832   26.3025 C.ar    1  UNL1        0.1388
     17 C          -8.9130  -15.4229   25.0380 C.ar    1  UNL1        0.0400
     18 C          -9.6237  -16.0910   23.8985 C.ar    1  UNL1        0.0407
     19 C         -10.0642  -17.5194   24.0234 C.ar    1  UNL1        0.1479
     20 C          -9.7939  -18.2797   25.2879 C.ar    1  UNL1        0.0407
     21 C          -9.0832  -17.6116   26.4274 C.ar    1  UNL1        0.0400
     22 O          -7.9321  -15.5151   27.4420 O.3     1  UNL1       -0.4755
     23 C          -5.6625  -15.6691   26.1869 C.3     1  UNL1        0.0512
     24 C          -6.5009  -15.0927   27.2891 C.3     1  UNL1        0.2055
@<TRIPOS>BOND
     1    23    24    1
     2    24    22    1
     3    22    16    1
     4    16    17   ar
     5    17    18   ar
     6    18    19   ar
     7    19    15    1
     8    15     1    1
     9     1     2   ar
    10     2     3   ar
    11     3     4   ar
    12     4     6    1
    13     6     7    2
    14     7     8    1
    15     8     9    1
    16     8    10    1
    17    10    11   am
    18    11    12    1
    19    11    13    2
    20     4     5   ar
    21    19    20   ar
    22    20    21   ar
    23    21    16   ar
    24     5     1   ar
    25    10    14    1
@<TRIPOS>MOLECULE
*****
 24 25 0 0 0
SMALL
GASTEIGER

@<TRIPOS>ATOM
      1 C          -6.9438  -20.7438   19.7338 C.ar    1  UNL1        0.2628
      2 N          -7.6699  -21.5012   18.6618 N.ar    1  UNL1       -0.2035
      3 C          -8.9866  -20.8223   18.4254 C.ar    1  UNL1        0.1091
      4 C          -9.0741  -19.6454   19.3513 C.ar    1  UNL1        0.0527
      5 S          -7.8116  -19.5968   20.1599 S.2     1  UNL1       -0.0283
      6 C         -10.2224  -18.6856   19.4511 C.2     1  UNL1        0.0052
      7 C         -10.7835  -18.3245   20.7944 C.2     1  UNL1       -0.0064
      8 C         -11.9319  -17.3647   20.8943 C.3     1  UNL1        0.0939
      9 C         -11.9220  -16.0971   20.0924 C.3     1  UNL1        0.0262
     10 N         -13.0904  -17.6726   21.7962 N.am    1  UNL1       -0.3022
     11 C         -12.8749  -17.8064   23.2746 C.2     1  UNL1        0.2232
     12 C         -14.0333  -18.1143   24.1765 C.3     1  UNL1        0.0946
     13 O         -11.5011  -17.6323   23.8512 O.2     1  UNL1       -0.2751
     14 H         -13.9920  -17.7868   21.4178 H       1  UNL1        0.1497
     15 O          -5.5879  -21.0751   20.2832 O.3     1  UNL1       -0.4313
     16 C          -2.6152  -17.7899   21.0710 C.ar    1  UNL1        0.1388
     17 C          -2.9251  -18.1988   19.6615 C.ar    1  UNL1        0.0400
     18 C          -3.9160  -19.2939   19.3989 C.ar    1  UNL1        0.0407
     19 C          -4.5970  -19.9800   20.5458 C.ar    1  UNL1        0.1479
     20 C          -4.2871  -19.5711   21.9553 C.ar    1  UNL1        0.0407
     21 C          -3.2962  -18.4761   22.2179 C.ar    1  UNL1        0.0400
     22 O          -1.6243  -16.6949   21.3336 O.3     1  UNL1       -0.4755
     23 C           0.3249  -17.7499   19.9780 C.3     1  UNL1        0.0512
     24 C          -0.4263  -16.5383   20.4446 C.3     1  UNL1        0.2055
@<TRIPOS>BOND
     1    23    24    1
     2    24    22    1
     3    22    16    1
     4    16    17   ar
     5    17    18   ar
     6    18    19   ar
     7    19    15    1
     8    15     1    1
     9     1     2   ar
    10     2     3   ar
    11     3     4   ar
    12     4     6    1
    13     6     7    2
    14     7     8    1
    15     8     9    1
    16     8    10    1
    17    10    11   am
    18    11    12    1
    19    11    13    2
    20     4     5   ar
    21    19    20   ar
    22    20    21   ar
    23    21    16   ar
    24     5     1   ar
    25    10    14    1
@<TRIPOS>MOLECULE
*****
 24 25 0 0 0
SMALL
GASTEIGER

@<TRIPOS>ATOM
      1 C           0.8360    1.1523   21.7295 C.ar    1  UNL1        0.2628
      2 N           0.0699    0.3480   20.7214 N.ar    1  UNL1       -0.2035
      3 C           0.9816   -0.7176   20.1890 C.ar    1  UNL1        0.1091
      4 C           2.3112   -0.5719   20.8681 C.ar    1  UNL1        0.0527
      5 S           2.2212    0.5837   21.8202 S.2     1  UNL1       -0.0283
      6 C           3.5186   -1.4309   20.6359 C.2     1  UNL1        0.0052
      7 C           3.4657   -2.5432   19.6309 C.2     1  UNL1       -0.0064
      8 C           4.6732   -3.4023   19.3986 C.3     1  UNL1        0.0939
      9 C           4.5206   -4.7577   18.7744 C.3     1  UNL1        0.0262
     10 N           6.0334   -2.9059   19.7906 N.am    1  UNL1       -0.3022
     11 C           6.9496   -2.3297   18.7520 C.2     1  UNL1        0.2232
     12 C           8.3097   -1.8334   19.1440 C.3     1  UNL1        0.0946
     13 O           6.5055   -2.2498   17.3214 O.2     1  UNL1       -0.2751
     14 H           6.3248   -2.9584   20.7295 H       1  UNL1        0.1497
     15 O           0.3094    2.3200   22.5100 O.3     1  UNL1       -0.4313
     16 C          -0.3325    1.9541   26.9489 C.ar    1  UNL1        0.1388
     17 C          -1.2682    2.7848   26.1217 C.ar    1  UNL1        0.0400
     18 C          -1.0543    2.9067   24.6421 C.ar    1  UNL1        0.0407
     19 C           0.0955    2.1980   23.9896 C.ar    1  UNL1        0.1479
     20 C           1.0312    1.3673   24.8168 C.ar    1  UNL1        0.0407
     21 C           0.8173    1.2454   26.2964 C.ar    1  UNL1        0.0400
     22 O          -0.5464    1.8321   28.4285 O.3     1  UNL1       -0.4755
     23 C          -1.4400   -0.5715   28.8458 C.3     1  UNL1        0.0512
     24 C          -0.4166    0.4959   29.0975 C.3     1  UNL1        0.2055
@<TRIPOS>BOND
     1    23    24    1
     2    24    22    1
     3    22    16    1
     4    16    17   ar
     5    17    18   ar
     6    18    19   ar
     7    19    15    1
     8    15     1    1
     9     1     2   ar
    10     2     3   ar
    11     3     4   ar
    12     4     6    1
    13     6     7    2
    14     7     8    1
    15     8     9    1
    16     8    10    1
    17    10    11   am
    18    11    12    1
    19    11    13    2
    20     4     5   ar
    21    19    20   ar
    22    20    21   ar
    23    21    16   ar
    24     5     1   ar
    25    10    14    1
@<TRIPOS>MOLECULE
*****
 24 25 0 0 0
SMALL
GASTEIGER

@<TRIPOS>ATOM
      1 C          -6.8659  -19.7306   21.7108 C.ar    1  UNL1        0.2628
      2 N          -7.2818  -20.1069   20.3196 N.ar    1  UNL1       -0.2035
      3 C          -8.5719  -19.4045   20.0154 C.ar    1  UNL1        0.1091
      4 C          -8.9532  -18.5940   21.2187 C.ar    1  UNL1        0.0527
      5 S          -7.8990  -18.7956   22.2664 S.2     1  UNL1       -0.0283
      6 C         -10.1744  -17.7332   21.3509 C.2     1  UNL1        0.0052
      7 C         -11.5068  -18.3604   21.6364 C.2     1  UNL1       -0.0064
      8 C         -12.7281  -17.4996   21.7686 C.3     1  UNL1        0.0939
      9 C         -12.9490  -16.3599   20.8188 C.3     1  UNL1        0.0262
     10 N         -13.7287  -17.7788   22.8509 N.am    1  UNL1       -0.3022
     11 C         -13.2624  -18.2000   24.2129 C.2     1  UNL1        0.2232
     12 C         -14.2628  -18.4791   25.2951 C.3     1  UNL1        0.0946
     13 O         -11.7955  -18.3421   24.4927 O.2     1  UNL1       -0.2751
     14 H         -14.6914  -17.6855   22.6672 H       1  UNL1        0.1497
     15 O          -5.6335  -20.2058   22.4215 O.3     1  UNL1       -0.4313
     16 C          -1.6131  -18.4974   21.3410 C.ar    1  UNL1        0.1388
     17 C          -2.4060  -17.8969   22.4637 C.ar    1  UNL1        0.0400
     18 C          -3.7461  -18.4664   22.8239 C.ar    1  UNL1        0.0407
     19 C          -4.2933  -19.6364   22.0614 C.ar    1  UNL1        0.1479
     20 C          -3.5004  -20.2369   20.9386 C.ar    1  UNL1        0.0407
     21 C          -2.1603  -19.6675   20.5784 C.ar    1  UNL1        0.0400
     22 O          -0.2729  -17.9280   20.9808 O.3     1  UNL1       -0.4755
     23 C          -1.0534  -17.5658   18.5293 C.3     1  UNL1        0.0512
     24 C           0.0440  -17.6024   19.5513 C.3     1  UNL1        0.2055
@<TRIPOS>BOND
     1    23    24    1
     2    24    22    1
     3    22    16    1
     4    16    17   ar
     5    17    18   ar
     6    18    19   ar
     7    19    15    1
     8    15     1    1
     9     1     2   ar
    10     2     3   ar
    11     3     4   ar
    12     4     6    1
    13     6     7    2
    14     7     8    1
    15     8     9    1
    16     8    10    1
    17    10    11   am
    18    11    12    1
    19    11    13    2
    20     4     5   ar
    21    19    20   ar
    22    20    21   ar
    23    21    16   ar
    24     5     1   ar
    25    10    14    1
@<TRIPOS>MOLECULE
*****
 24 25 0 0 0
SMALL
GASTEIGER

@<TRIPOS>ATOM
      1 C           5.9642   -3.6887   23.4853 C.ar    1  UNL1        0.2628
      2 N           6.7436   -3.9397   24.7421 N.ar    1  UNL1       -0.2035
      3 C           6.2723   -2.9667   25.7820 C.ar    1  UNL1        0.1091
      4 C           5.2016   -2.1143   25.1678 C.ar    1  UNL1        0.0527
      5 S           5.0112   -2.5605   23.7484 S.2     1  UNL1       -0.0283
      6 C           4.4529   -1.0098   25.8527 C.2     1  UNL1        0.0052
      7 C           3.7604   -1.2698   27.1576 C.2     1  UNL1       -0.0064
      8 C           3.0117   -0.1653   27.8426 C.3     1  UNL1        0.0939
      9 C           3.7557    0.8581   28.6484 C.3     1  UNL1        0.0262
     10 N           1.5187   -0.0841   27.7219 N.am    1  UNL1       -0.3022
     11 C           0.6584   -0.2317   28.9419 C.2     1  UNL1        0.2232
     12 C          -0.8345   -0.1505   28.8212 C.3     1  UNL1        0.0946
     13 O           1.2912   -0.4604   30.2826 O.2     1  UNL1       -0.2751
     14 H           1.1034    0.0660   26.8420 H       1  UNL1        0.1497
     15 O           6.1118   -4.4348   22.1925 O.3     1  UNL1       -0.4313
     16 C           5.1789   -2.3887   18.2946 C.ar    1  UNL1        0.1388
     17 C           6.5161   -2.1903   18.9446 C.ar    1  UNL1        0.0400
     18 C           6.8271   -2.8723   20.2439 C.ar    1  UNL1        0.0407
     19 C           5.8009   -3.7528   20.8932 C.ar    1  UNL1        0.1479
     20 C           4.4637   -3.9512   20.2432 C.ar    1  UNL1        0.0407
     21 C           4.1527   -3.2692   18.9439 C.ar    1  UNL1        0.0400
     22 O           4.8679   -1.7067   16.9954 O.3     1  UNL1       -0.4755
     23 C           3.4362    0.2567   17.9147 C.3     1  UNL1        0.0512
     24 C           3.6702   -0.8103   16.8867 C.3     1  UNL1        0.2055
@<TRIPOS>BOND
     1    23    24    1
     2    24    22    1
     3    22    16    1
     4    16    17   ar
     5    17    18   ar
     6    18    19   ar
     7    19    15    1
     8    15     1    1
     9     1     2   ar
    10     2     3   ar
    11     3     4   ar
    12     4     6    1
    13     6     7    2
    14     7     8    1
    15     8     9    1
    16     8    10    1
    17    10    11   am
    18    11    12    1
    19    11    13    2
    20     4     5   ar
    21    19    20   ar
    22    20    21   ar
    23    21    16   ar
    24     5     1   ar
    25    10    14    1
@<TRIPOS>MOLECULE
*****
 24 25 0 0 0
SMALL
GASTEIGER

@<TRIPOS>ATOM
      1 C          -6.2844  -19.8323   21.6683 C.ar    1  UNL1        0.2628
      2 N          -6.6000  -20.5563   20.3931 N.ar    1  UNL1       -0.2035
      3 C          -8.0063  -20.2122   20.0005 C.ar    1  UNL1        0.1091
      4 C          -8.5598  -19.2755   21.0331 C.ar    1  UNL1        0.0527
      5 S          -7.4956  -19.0407   22.0639 S.2     1  UNL1       -0.0283
      6 C          -9.9358  -18.6784   21.0347 C.2     1  UNL1        0.0052
      7 C         -10.7529  -18.6808   22.2926 C.2     1  UNL1       -0.0064
      8 C         -12.1290  -18.0837   22.2943 C.3     1  UNL1        0.0939
      9 C         -12.9506  -18.0963   23.5492 C.3     1  UNL1        0.0262
     10 N         -12.6834  -17.4740   21.0409 N.am    1  UNL1       -0.3022
     11 C         -12.0452  -16.2484   20.4572 C.2     1  UNL1        0.2232
     12 C         -12.5996  -15.6386   19.2039 C.3     1  UNL1        0.0946
     13 O         -10.8526  -15.6325   21.1270 O.2     1  UNL1       -0.2751
     14 H         -13.4662  -17.8782   20.6014 H       1  UNL1        0.1497
     15 O          -4.9857  -19.8897   22.4166 O.3     1  UNL1       -0.4313
     16 C          -1.4438  -17.5261   20.9611 C.ar    1  UNL1        0.1388
     17 C          -2.2986  -16.9897   22.0708 C.ar    1  UNL1        0.0400
     18 C          -3.4792  -17.7776   22.5560 C.ar    1  UNL1        0.0407
     19 C          -3.8051  -19.1019   21.9314 C.ar    1  UNL1        0.1479
     20 C          -2.9503  -19.6382   20.8217 C.ar    1  UNL1        0.0407
     21 C          -1.7697  -18.8503   20.3365 C.ar    1  UNL1        0.0400
     22 O          -0.2632  -16.7382   20.4759 O.3     1  UNL1       -0.4755
     23 C           2.1591  -17.5878   20.8764 C.3     1  UNL1        0.0512
     24 C           0.9620  -17.4496   19.9832 C.3     1  UNL1        0.2055
@<TRIPOS>BOND
     1    23    24    1
     2    24    22    1
     3    22    16    1
     4    16    17   ar
     5    17    18   ar
     6    18    19   ar
     7    19    15    1
     8    15     1    1
     9     1     2   ar
    10     2     3   ar
    11     3     4   ar
    12     4     6    1
    13     6     7    2
    14     7     8    1
    15     8     9    1
    16     8    10    1
    17    10    11   am
    18    11    12    1
    19    11    13    2
    20     4     5   ar
    21    19    20   ar
    22    20    21   ar
    23    21    16   ar
    24     5     1   ar
    25    10    14    1
@<TRIPOS>MOLECULE
*****
 24 25 0 0 0
SMALL
GASTEIGER

@<TRIPOS>ATOM
      1 C          -0.3490    2.9423   20.5708 C.ar    1  UNL1        0.2628
      2 N           0.4576    3.4985   21.7066 N.ar    1  UNL1       -0.2035
      3 C          -0.4913    3.8932   22.7994 C.ar    1  UNL1        0.1091
      4 C          -1.8843    3.5809   22.3388 C.ar    1  UNL1        0.0527
      5 S          -1.7964    2.9932   20.9615 S.2     1  UNL1       -0.0283
      6 C          -3.1440    3.8151   23.1186 C.2     1  UNL1        0.0052
      7 C          -3.1704    3.5571   24.5960 C.2     1  UNL1       -0.0064
      8 C          -4.4302    3.7913   25.3759 C.3     1  UNL1        0.0939
      9 C          -4.3552    4.2607   26.7986 C.3     1  UNL1        0.0262
     10 N          -5.7649    3.5562   24.7330 N.am    1  UNL1       -0.3022
     11 C          -6.5492    4.7130   24.1882 C.2     1  UNL1        0.2232
     12 C          -7.8838    4.4778   23.5453 C.3     1  UNL1        0.0946
     13 O          -5.9986    6.1049   24.2862 O.2     1  UNL1       -0.2751
     14 H          -6.1262    2.6426   24.6687 H       1  UNL1        0.1497
     15 O           0.1961    2.4258   19.2723 O.3     1  UNL1       -0.4313
     16 C           3.0740   -1.0336   19.2570 C.ar    1  UNL1        0.1388
     17 C           1.8547   -1.0762   20.1296 C.ar    1  UNL1        0.0400
     18 C           0.8954    0.0769   20.1347 C.ar    1  UNL1        0.0407
     19 C           1.1554    1.2727   19.2672 C.ar    1  UNL1        0.1479
     20 C           2.3747    1.3153   18.3946 C.ar    1  UNL1        0.0407
     21 C           3.3340    0.1621   18.3896 C.ar    1  UNL1        0.0400
     22 O           4.0333   -2.1867   19.2519 O.3     1  UNL1       -0.4755
     23 C           4.3696   -4.7260   18.8175 C.3     1  UNL1        0.0512
     24 C           3.5153   -3.5934   19.3048 C.3     1  UNL1        0.2055
@<TRIPOS>BOND
     1    23    24    1
     2    24    22    1
     3    22    16    1
     4    16    17   ar
     5    17    18   ar
     6    18    19   ar
     7    19    15    1
     8    15     1    1
     9     1     2   ar
    10     2     3   ar
    11     3     4   ar
    12     4     6    1
    13     6     7    2
    14     7     8    1
    15     8     9    1
    16     8    10    1
    17    10    11   am
    18    11    12    1
    19    11    13    2
    20     4     5   ar
    21    19    20   ar
    22    20    21   ar
    23    21    16   ar
    24     5     1   ar
    25    10    14    1
@<TRIPOS>MOLECULE
*****
 24 25 0 0 0
SMALL
GASTEIGER

@<TRIPOS>ATOM
      1 C           5.2600   -0.1097   33.7449 C.ar    1  UNL1        0.2628
      2 N           4.2721   -1.2206   33.9450 N.ar    1  UNL1       -0.2035
      3 C           4.7842   -2.4318   33.2233 C.ar    1  UNL1        0.1091
      4 C           6.0886   -2.0694   32.5772 C.ar    1  UNL1        0.0527
      5 S           6.3826   -0.6343   32.8995 S.2     1  UNL1       -0.0283
      6 C           6.9479   -2.9819   31.7533 C.2     1  UNL1        0.0052
      7 C           6.6334   -4.4469   31.6824 C.2     1  UNL1       -0.0064
      8 C           7.4927   -5.3595   30.8586 C.3     1  UNL1        0.0939
      9 C           8.9044   -5.6427   31.2791 C.3     1  UNL1        0.0262
     10 N           6.9402   -5.9890   29.6141 N.am    1  UNL1       -0.3022
     11 C           7.1048   -5.3033   28.2902 C.2     1  UNL1        0.2232
     12 C           6.5523   -5.9326   27.0457 C.3     1  UNL1        0.0946
     13 O           7.8219   -3.9881   28.2107 O.2     1  UNL1       -0.2751
     14 H           6.4695   -6.8521   29.6663 H       1  UNL1        0.1497
     15 O           5.1454    1.2816   34.2938 O.3     1  UNL1       -0.4313
     16 C           2.9174    2.0084   38.1354 C.ar    1  UNL1        0.1388
     17 C           2.4854    2.6986   36.8757 C.ar    1  UNL1        0.0400
     18 C           3.2281    2.4564   35.5952 C.ar    1  UNL1        0.0407
     19 C           4.4028    1.5238   35.5744 C.ar    1  UNL1        0.1479
     20 C           4.8347    0.8335   36.8340 C.ar    1  UNL1        0.0407
     21 C           4.0921    1.0758   38.1146 C.ar    1  UNL1        0.0400
     22 O           2.1747    2.2506   39.4159 O.3     1  UNL1       -0.4755
     23 C           0.9937   -0.0446   39.7112 C.3     1  UNL1        0.0512
     24 C           0.9431    1.4544   39.7308 C.3     1  UNL1        0.2055
@<TRIPOS>BOND
     1    23    24    1
     2    24    22    1
     3    22    16    1
     4    16    17   ar
     5    17    18   ar
     6    18    19   ar
     7    19    15    1
     8    15     1    1
     9     1     2   ar
    10     2     3   ar
    11     3     4   ar
    12     4     6    1
    13     6     7    2
    14     7     8    1
    15     8     9    1
    16     8    10    1
    17    10    11   am
    18    11    12    1
    19    11    13    2
    20     4     5   ar
    21    19    20   ar
    22    20    21   ar
    23    21    16   ar
    24     5     1   ar
    25    10    14    1
@<TRIPOS>MOLECULE
*****
 24 25 0 0 0
SMALL
GASTEIGER

@<TRIPOS>ATOM
      1 C          -0.4040    2.5520   19.7152 C.ar    1  UNL1        0.2628
      2 N          -0.4541    1.3870   20.6588 N.ar    1  UNL1       -0.2035
      3 C           0.5363    0.3645   20.1859 C.ar    1  UNL1        0.1091
      4 C           1.1985    0.8975   18.9499 C.ar    1  UNL1        0.0527
      5 S           0.6173    2.2494   18.6590 S.2     1  UNL1       -0.0283
      6 C           2.2560    0.2009   18.1461 C.2     1  UNL1        0.0052
      7 C           3.3903   -0.4931   18.8402 C.2     1  UNL1       -0.0064
      8 C           4.4479   -1.1897   18.0365 C.3     1  UNL1        0.0939
      9 C           5.5803   -0.4035   17.4452 C.3     1  UNL1        0.0262
     10 N           4.3732   -2.6728   17.8240 N.am    1  UNL1       -0.3022
     11 C           4.7679   -3.6093   18.9272 C.2     1  UNL1        0.2232
     12 C           4.6932   -5.0923   18.7148 C.3     1  UNL1        0.0946
     13 O           5.2373   -3.0628   20.2429 O.2     1  UNL1       -0.2751
     14 H           4.0651   -3.0314   16.9604 H       1  UNL1        0.1497
     15 O          -1.2302    3.8002   19.8109 O.3     1  UNL1       -0.4313
     16 C          -5.1999    3.7143   21.9285 C.ar    1  UNL1        0.1388
     17 C          -5.1416    3.5602   20.4376 C.ar    1  UNL1        0.0400
     18 C          -3.8184    3.5888   19.7317 C.ar    1  UNL1        0.0407
     19 C          -2.5534    3.7716   20.5167 C.ar    1  UNL1        0.1479
     20 C          -2.6116    3.9258   22.0076 C.ar    1  UNL1        0.0407
     21 C          -3.9348    3.8972   22.7135 C.ar    1  UNL1        0.0400
     22 O          -6.5231    3.6857   22.6344 O.3     1  UNL1       -0.4755
     23 C          -7.0683    5.4470   24.4649 C.3     1  UNL1        0.0512
     24 C          -7.1807    4.9690   23.0475 C.3     1  UNL1        0.2055
@<TRIPOS>BOND
     1    23    24    1
     2    24    22    1
     3    22    16    1
     4    16    17   ar
     5    17    18   ar
     6    18    19   ar
     7    19    15    1
     8    15     1    1
     9     1     2   ar
    10     2     3   ar
    11     3     4   ar
    12     4     6    1
    13     6     7    2
    14     7     8    1
    15     8     9    1
    16     8    10    1
    17    10    11   am
    18    11    12    1
    19    11    13    2
    20     4     5   ar
    21    19    20   ar
    22    20    21   ar
    23    21    16   ar
    24     5     1   ar
    25    10    14    1
