@<TRIPOS>MOLECULE
*****
 26 27 0 0 0
SMALL
GASTEIGER

@<TRIPOS>ATOM
      1 C          -8.1159  -18.4280   21.7702 C.2     1  UNL1        0.0709
      2 C          -6.6247  -18.4691   21.6132 C.2     1  UNL1        0.0283
      3 C          -6.0041  -19.3554   20.5743 C.3     1  UNL1        0.0470
      4 N          -5.7542  -17.6238   22.4951 N.pl3   1  UNL1       -0.3192
      5 C          -6.3748  -16.7375   23.5339 C.2     1  UNL1        0.0283
      6 C          -5.5042  -15.8923   24.4158 C.3     1  UNL1        0.0470
      7 C          -7.8659  -16.6965   23.6909 C.2     1  UNL1        0.0709
      8 C          -8.7365  -17.5417   22.8091 C.3     1  UNL1        0.0872
      9 H          -4.7755  -17.6508   22.3920 H       1  UNL1        0.1516
     10 C         -10.2277  -17.5006   22.9661 C.ar    1  UNL1        0.0554
     11 C         -10.8925  -18.3210   24.0315 C.ar    1  UNL1        0.0024
     12 C         -12.3837  -18.2799   24.1886 C.ar    1  UNL1        0.0001
     13 C         -13.2101  -17.4185   23.2802 C.ar    1  UNL1        0.0063
     14 C         -12.5453  -16.5981   22.2149 C.ar    1  UNL1        0.0749
     15 C         -11.0541  -16.6392   22.0578 C.ar    1  UNL1        0.2866
     16 N         -10.3893  -15.8189   20.9924 N.pl3   1  UNL1        0.0806
     17 O          -9.2122  -14.8894   20.9756 O.2     1  UNL1        0.0415
     18 O         -10.9181  -15.8417   19.5889 O.co2   1  UNL1       -0.5760
     19 C          -8.9865  -19.2733   20.8883 C.2     1  UNL1        0.3388
     20 O          -9.8779  -20.3171   21.4931 O.2     1  UNL1       -0.2452
     21 C          -8.9914  -20.2624   18.4860 C.3     1  UNL1        0.2559
     22 O          -8.9656  -19.0747   19.4017 O.3     1  UNL1       -0.4415
     23 C          -8.4866  -15.8101   24.7298 C.2     1  UNL1        0.3388
     24 O          -8.8004  -15.0774   24.7169 O.2     1  UNL1       -0.2452
     25 O          -8.6052  -16.2856   26.1475 O.3     1  UNL1       -0.4415
     26 C          -8.0339  -15.4636   27.2645 C.3     1  UNL1        0.2559
@<TRIPOS>UNITY_ATOM_ATTR
16 1
charge 1
18 1
charge -1
@<TRIPOS>BOND
     1    21    22    1
     2    22    19    1
     3    19    20    2
     4    19     1    1
     5     1     2    2
     6     2     3    1
     7     2     4    1
     8     4     5    1
     9     5     6    1
    10     5     7    2
    11     7    23    1
    12    23    24    2
    13    23    25    1
    14    25    26    1
    15     7     8    1
    16     8    10    1
    17    10    11   ar
    18    11    12   ar
    19    12    13   ar
    20    13    14   ar
    21    14    15   ar
    22    15    16    1
    23    16    17    2
    24    16    18    1
    25     8     1    1
    26    15    10   ar
    27     4     9    1
@<TRIPOS>MOLECULE
*****
 26 27 0 0 0
SMALL
GASTEIGER

@<TRIPOS>ATOM
      1 C          -7.3033  -16.7370   23.5274 C.2     1  UNL1        0.0709
      2 C          -5.8127  -16.8945   23.4712 C.2     1  UNL1        0.0283
      3 C          -4.9394  -16.1033   24.3993 C.3     1  UNL1        0.0470
      4 N          -5.1953  -17.8432   22.4869 N.pl3   1  UNL1       -0.3192
      5 C          -6.0686  -18.6344   21.5588 C.2     1  UNL1        0.0283
      6 C          -5.4512  -19.5830   20.5745 C.3     1  UNL1        0.0470
      7 C          -7.5592  -18.4769   21.6150 C.2     1  UNL1        0.0709
      8 C          -8.1766  -17.5283   22.5994 C.3     1  UNL1        0.0872
      9 H          -4.2170  -17.9465   22.4500 H       1  UNL1        0.1516
     10 C          -9.6673  -17.3708   22.6556 C.ar    1  UNL1        0.0554
     11 C         -10.3333  -16.2604   21.8984 C.ar    1  UNL1        0.0024
     12 C         -11.8239  -16.1029   21.9545 C.ar    1  UNL1        0.0001
     13 C         -12.6486  -17.0559   22.7680 C.ar    1  UNL1        0.0063
     14 C         -11.9827  -18.1664   23.5252 C.ar    1  UNL1        0.0749
     15 C         -10.4920  -18.3238   23.4690 C.ar    1  UNL1        0.2866
     16 N          -9.8260  -19.4343   24.2262 N.pl3   1  UNL1        0.0806
     17 O          -9.1678  -20.7209   23.8247 O.2     1  UNL1        0.0415
     18 O          -9.7285  -19.3691   25.7217 O.co2   1  UNL1       -0.5760
     19 C          -7.9207  -15.7884   24.5118 C.2     1  UNL1        0.3388
     20 O          -7.9351  -14.3159   24.2265 O.2     1  UNL1       -0.2452
     21 C          -8.1151  -15.7297   27.1019 C.3     1  UNL1        0.2559
     22 O          -8.5237  -16.3122   25.7814 O.3     1  UNL1       -0.4415
     23 C          -8.4326  -19.2682   20.6869 C.2     1  UNL1        0.3388
     24 O          -8.6108  -20.0422   20.6195 O.2     1  UNL1       -0.2452
     25 O          -9.1959  -18.5719   19.5995 O.3     1  UNL1       -0.4415
     26 C         -10.6616  -18.8377   19.4237 C.3     1  UNL1        0.2559
@<TRIPOS>UNITY_ATOM_ATTR
16 1
charge 1
18 1
charge -1
@<TRIPOS>BOND
     1    21    22    1
     2    22    19    1
     3    19    20    2
     4    19     1    1
     5     1     2    2
     6     2     3    1
     7     2     4    1
     8     4     5    1
     9     5     6    1
    10     5     7    2
    11     7    23    1
    12    23    24    2
    13    23    25    1
    14    25    26    1
    15     7     8    1
    16     8    10    1
    17    10    11   ar
    18    11    12   ar
    19    12    13   ar
    20    13    14   ar
    21    14    15   ar
    22    15    16    1
    23    16    17    2
    24    16    18    1
    25     8     1    1
    26    15    10   ar
    27     4     9    1
@<TRIPOS>MOLECULE
*****
 26 27 0 0 0
SMALL
GASTEIGER

@<TRIPOS>ATOM
      1 C          -7.3661  -16.7811   23.6099 C.2     1  UNL1        0.0709
      2 C          -5.8774  -16.9132   23.4834 C.2     1  UNL1        0.0283
      3 C          -4.9749  -16.1097   24.3723 C.3     1  UNL1        0.0470
      4 N          -5.2909  -17.8487   22.4681 N.pl3   1  UNL1       -0.3192
      5 C          -6.1933  -18.6521   21.5792 C.2     1  UNL1        0.0283
      6 C          -5.6068  -19.5877   20.5639 C.3     1  UNL1        0.0470
      7 C          -7.6821  -18.5201   21.7057 C.2     1  UNL1        0.0709
      8 C          -8.2685  -17.5846   22.7210 C.3     1  UNL1        0.0872
      9 H          -4.3138  -17.9353   22.3851 H       1  UNL1        0.1516
     10 C          -9.7574  -17.4526   22.8474 C.ar    1  UNL1        0.0554
     11 C         -10.5101  -18.3332   23.8003 C.ar    1  UNL1        0.0024
     12 C         -11.9989  -18.2012   23.9268 C.ar    1  UNL1        0.0001
     13 C         -12.7350  -17.1886   23.1003 C.ar    1  UNL1        0.0063
     14 C         -11.9823  -16.3080   22.1475 C.ar    1  UNL1        0.0749
     15 C         -10.4934  -16.4401   22.0210 C.ar    1  UNL1        0.2866
     16 N          -9.7406  -15.5595   21.0682 N.pl3   1  UNL1        0.0806
     17 O          -8.4021  -14.8838   21.1097 O.2     1  UNL1        0.0415
     18 O         -10.3463  -15.1962   19.7448 O.co2   1  UNL1       -0.5760
     19 C          -7.9526  -15.8456   24.6252 C.2     1  UNL1        0.3388
     20 O          -8.0081  -14.3732   24.3445 O.2     1  UNL1       -0.2452
     21 C          -8.1003  -15.7302   27.2165 C.3     1  UNL1        0.2559
     22 O          -8.4835  -16.3825   25.9213 O.3     1  UNL1       -0.4415
     23 C          -8.5845  -19.3236   20.8168 C.2     1  UNL1        0.3388
     24 O          -8.8285  -20.0825   20.8159 O.2     1  UNL1       -0.2452
     25 O          -9.2377  -18.6781   19.6307 O.3     1  UNL1       -0.4415
     26 C         -10.7116  -18.8411   19.4051 C.3     1  UNL1        0.2559
@<TRIPOS>UNITY_ATOM_ATTR
16 1
charge 1
18 1
charge -1
@<TRIPOS>BOND
     1    21    22    1
     2    22    19    1
     3    19    20    2
     4    19     1    1
     5     1     2    2
     6     2     3    1
     7     2     4    1
     8     4     5    1
     9     5     6    1
    10     5     7    2
    11     7    23    1
    12    23    24    2
    13    23    25    1
    14    25    26    1
    15     7     8    1
    16     8    10    1
    17    10    11   ar
    18    11    12   ar
    19    12    13   ar
    20    13    14   ar
    21    14    15   ar
    22    15    16    1
    23    16    17    2
    24    16    18    1
    25     8     1    1
    26    15    10   ar
    27     4     9    1
@<TRIPOS>MOLECULE
*****
 26 27 0 0 0
SMALL
GASTEIGER

@<TRIPOS>ATOM
      1 C          -7.7565  -18.3483   21.9107 C.2     1  UNL1        0.0709
      2 C          -6.2609  -18.4525   21.8607 C.2     1  UNL1        0.0283
      3 C          -5.6083  -19.4410   20.9402 C.3     1  UNL1        0.0470
      4 N          -5.4180  -17.5684   22.7311 N.pl3   1  UNL1       -0.3192
      5 C          -6.0705  -16.5800   23.6516 C.2     1  UNL1        0.0283
      6 C          -5.2275  -15.6958   24.5220 C.3     1  UNL1        0.0470
      7 C          -7.5660  -16.4758   23.7016 C.2     1  UNL1        0.0709
      8 C          -8.4090  -17.3600   22.8312 C.3     1  UNL1        0.0872
      9 H          -4.4364  -17.6368   22.6983 H       1  UNL1        0.1516
     10 C          -9.9046  -17.2557   22.8812 C.ar    1  UNL1        0.0554
     11 C         -10.6226  -16.3203   21.9542 C.ar    1  UNL1        0.0024
     12 C         -12.1181  -16.2160   22.0043 C.ar    1  UNL1        0.0001
     13 C         -12.8957  -17.0472   22.9813 C.ar    1  UNL1        0.0063
     14 C         -12.1776  -17.9826   23.9083 C.ar    1  UNL1        0.0749
     15 C         -10.6820  -18.0869   23.8583 C.ar    1  UNL1        0.2866
     16 N          -9.9640  -19.0223   24.7853 N.pl3   1  UNL1        0.0806
     17 O          -9.5370  -20.4572   24.6927 O.2     1  UNL1        0.0415
     18 O          -9.5185  -18.5448   26.1357 O.co2   1  UNL1       -0.5760
     19 C          -8.5994  -19.2325   21.0403 C.2     1  UNL1        0.3388
     20 O          -9.4027  -20.3416   21.6524 O.2     1  UNL1       -0.2452
     21 C          -8.8418  -20.1674   18.6284 C.3     1  UNL1        0.2559
     22 O          -8.6391  -19.0076   19.5578 O.3     1  UNL1       -0.4415
     23 C          -8.2186  -15.4874   24.6221 C.2     1  UNL1        0.3388
     24 O          -8.4339  -14.7231   24.5513 O.2     1  UNL1       -0.2452
     25 O          -8.6031  -15.8980   26.0126 O.3     1  UNL1       -0.4415
     26 C          -7.7895  -15.4331   27.1839 C.3     1  UNL1        0.2559
@<TRIPOS>UNITY_ATOM_ATTR
16 1
charge 1
18 1
charge -1
@<TRIPOS>BOND
     1    21    22    1
     2    22    19    1
     3    19    20    2
     4    19     1    1
     5     1     2    2
     6     2     3    1
     7     2     4    1
     8     4     5    1
     9     5     6    1
    10     5     7    2
    11     7    23    1
    12    23    24    2
    13    23    25    1
    14    25    26    1
    15     7     8    1
    16     8    10    1
    17    10    11   ar
    18    11    12   ar
    19    12    13   ar
    20    13    14   ar
    21    14    15   ar
    22    15    16    1
    23    16    17    2
    24    16    18    1
    25     8     1    1
    26    15    10   ar
    27     4     9    1
@<TRIPOS>MOLECULE
*****
 26 27 0 0 0
SMALL
GASTEIGER

@<TRIPOS>ATOM
      1 C          -7.6260  -16.8729   22.8849 C.2     1  UNL1        0.0709
      2 C          -6.4084  -16.2453   23.4962 C.2     1  UNL1        0.0283
      3 C          -6.5036  -14.8925   24.1374 C.3     1  UNL1        0.0470
      4 N          -5.0957  -16.9704   23.4663 N.pl3   1  UNL1       -0.3192
      5 C          -5.0004  -18.3231   22.8251 C.2     1  UNL1        0.0283
      6 C          -3.6877  -19.0481   22.7952 C.3     1  UNL1        0.0470
      7 C          -6.2180  -18.9507   22.2139 C.2     1  UNL1        0.0709
      8 C          -7.5308  -18.2256   22.2438 C.3     1  UNL1        0.0872
      9 H          -4.2966  -16.5584   23.8675 H       1  UNL1        0.1516
     10 C          -8.7483  -18.8533   21.6325 C.ar    1  UNL1        0.0554
     11 C          -9.0192  -18.6919   20.1660 C.ar    1  UNL1        0.0024
     12 C         -10.2367  -19.3196   19.5547 C.ar    1  UNL1        0.0001
     13 C         -11.1834  -20.1086   20.4100 C.ar    1  UNL1        0.0063
     14 C         -10.9125  -20.2699   21.8764 C.ar    1  UNL1        0.0749
     15 C          -9.6950  -19.6422   22.4877 C.ar    1  UNL1        0.2866
     16 N          -9.4241  -19.8035   23.9542 N.pl3   1  UNL1        0.0806
     17 O          -9.4428  -18.8679   25.1264 O.2     1  UNL1        0.0415
     18 O          -9.0396  -21.1457   24.5027 O.co2   1  UNL1       -0.5760
     19 C          -8.9388  -16.1478   22.9149 C.2     1  UNL1        0.3388
     20 O          -9.6664  -15.9672   24.2140 O.2     1  UNL1       -0.2452
     21 C         -10.9473  -15.9089   21.2843 C.3     1  UNL1        0.2559
     22 O          -9.5239  -15.6033   21.6456 O.3     1  UNL1       -0.4415
     23 C          -6.1228  -20.3034   21.5727 C.2     1  UNL1        0.3388
     24 O          -6.2752  -21.0457   21.8204 O.2     1  UNL1       -0.2452
     25 O          -5.6503  -20.4297   20.1547 O.3     1  UNL1       -0.4415
     26 C          -4.2029  -20.6990   19.8676 C.3     1  UNL1        0.2559
@<TRIPOS>UNITY_ATOM_ATTR
16 1
charge 1
18 1
charge -1
@<TRIPOS>BOND
     1    21    22    1
     2    22    19    1
     3    19    20    2
     4    19     1    1
     5     1     2    2
     6     2     3    1
     7     2     4    1
     8     4     5    1
     9     5     6    1
    10     5     7    2
    11     7    23    1
    12    23    24    2
    13    23    25    1
    14    25    26    1
    15     7     8    1
    16     8    10    1
    17    10    11   ar
    18    11    12   ar
    19    12    13   ar
    20    13    14   ar
    21    14    15   ar
    22    15    16    1
    23    16    17    2
    24    16    18    1
    25     8     1    1
    26    15    10   ar
    27     4     9    1
@<TRIPOS>MOLECULE
*****
 26 27 0 0 0
SMALL
GASTEIGER

@<TRIPOS>ATOM
      1 C          -9.1568  -18.4994   20.8263 C.2     1  UNL1        0.0709
      2 C          -9.0447  -19.4523   19.6733 C.2     1  UNL1        0.0283
      3 C         -10.2169  -19.6690   18.7627 C.3     1  UNL1        0.0470
      4 N          -7.7605  -20.1885   19.4309 N.pl3   1  UNL1       -0.3192
      5 C          -6.5884  -19.9719   20.3414 C.2     1  UNL1        0.0283
      6 C          -5.3042  -20.7082   20.0990 C.3     1  UNL1        0.0470
      7 C          -6.7004  -19.0190   21.4944 C.2     1  UNL1        0.0709
      8 C          -7.9846  -18.2827   21.7368 C.3     1  UNL1        0.0872
      9 H          -7.6870  -20.8140   18.6741 H       1  UNL1        0.1516
     10 C          -8.0967  -17.3298   22.8898 C.ar    1  UNL1        0.0554
     11 C          -7.4823  -15.9645   22.7969 C.ar    1  UNL1        0.0024
     12 C          -7.5943  -15.0116   23.9498 C.ar    1  UNL1        0.0001
     13 C          -8.3207  -15.4239   25.1958 C.ar    1  UNL1        0.0063
     14 C          -8.9351  -16.7892   25.2888 C.ar    1  UNL1        0.0749
     15 C          -8.8230  -17.7421   24.1357 C.ar    1  UNL1        0.2866
     16 N          -9.4374  -19.1074   24.2287 N.pl3   1  UNL1        0.0806
     17 O          -8.9891  -20.4813   23.8273 O.2     1  UNL1        0.0415
     18 O         -10.7983  -19.2776   24.8363 O.co2   1  UNL1       -0.5760
     19 C         -10.4410  -17.7631   21.0687 C.2     1  UNL1        0.3388
     20 O         -11.5958  -18.4640   21.7207 O.2     1  UNL1       -0.2452
     21 C         -11.5489  -15.9355   19.5914 C.3     1  UNL1        0.2559
     22 O         -10.5704  -16.3260   20.6591 O.3     1  UNL1       -0.4415
     23 C          -5.5283  -18.8023   22.4050 C.2     1  UNL1        0.3388
     24 O          -5.2849  -19.1407   23.0845 O.2     1  UNL1       -0.2452
     25 O          -4.5131  -17.7462   22.0824 O.3     1  UNL1       -0.4415
     26 C          -3.0640  -18.1123   21.9567 C.3     1  UNL1        0.2559
@<TRIPOS>UNITY_ATOM_ATTR
16 1
charge 1
18 1
charge -1
@<TRIPOS>BOND
     1    21    22    1
     2    22    19    1
     3    19    20    2
     4    19     1    1
     5     1     2    2
     6     2     3    1
     7     2     4    1
     8     4     5    1
     9     5     6    1
    10     5     7    2
    11     7    23    1
    12    23    24    2
    13    23    25    1
    14    25    26    1
    15     7     8    1
    16     8    10    1
    17    10    11   ar
    18    11    12   ar
    19    12    13   ar
    20    13    14   ar
    21    14    15   ar
    22    15    16    1
    23    16    17    2
    24    16    18    1
    25     8     1    1
    26    15    10   ar
    27     4     9    1
@<TRIPOS>MOLECULE
*****
 26 27 0 0 0
SMALL
GASTEIGER

@<TRIPOS>ATOM
      1 C          -9.8799  -18.0984   21.3931 C.2     1  UNL1        0.0709
      2 C          -9.8672  -18.6884   20.0141 C.2     1  UNL1        0.0283
      3 C         -11.1154  -18.6779   19.1822 C.3     1  UNL1        0.0470
      4 N          -8.6063  -19.2890   19.4669 N.pl3   1  UNL1       -0.3192
      5 C          -7.3581  -19.2996   20.2987 C.2     1  UNL1        0.0283
      6 C          -6.0972  -19.9002   19.7515 C.3     1  UNL1        0.0470
      7 C          -7.3709  -18.7095   21.6777 C.2     1  UNL1        0.0709
      8 C          -8.6318  -18.1089   22.2249 C.3     1  UNL1        0.0872
      9 H          -8.5979  -19.6763   18.5618 H       1  UNL1        0.1516
     10 C          -8.6445  -17.5189   23.6039 C.ar    1  UNL1        0.0554
     11 C          -9.1885  -18.3128   24.7544 C.ar    1  UNL1        0.0024
     12 C          -9.2012  -17.7228   26.1334 C.ar    1  UNL1        0.0001
     13 C          -8.6699  -16.3388   26.3620 C.ar    1  UNL1        0.0063
     14 C          -8.1259  -15.5448   25.2115 C.ar    1  UNL1        0.0749
     15 C          -8.1132  -16.1349   23.8324 C.ar    1  UNL1        0.2866
     16 N          -7.5692  -15.3409   22.6819 N.pl3   1  UNL1        0.0806
     17 O          -8.1055  -14.9567   21.3349 O.2     1  UNL1        0.0415
     18 O          -6.1963  -14.7424   22.7663 O.co2   1  UNL1       -0.5760
     19 C         -11.1408  -17.4978   21.9402 C.2     1  UNL1        0.3388
     20 O         -11.3231  -16.0089   21.9421 O.2     1  UNL1       -0.2452
     21 C         -12.8006  -18.1144   23.8415 C.3     1  UNL1        0.2559
     22 O         -12.2195  -18.3860   22.4856 O.3     1  UNL1       -0.4415
     23 C          -6.1227  -18.7200   22.5096 C.2     1  UNL1        0.3388
     24 O          -5.8229  -19.2214   23.0520 O.2     1  UNL1       -0.2452
     25 O          -5.1337  -17.5983   22.3923 O.3     1  UNL1       -0.4415
     26 C          -3.8146  -17.6842   23.1011 C.3     1  UNL1        0.2559
@<TRIPOS>UNITY_ATOM_ATTR
16 1
charge 1
18 1
charge -1
@<TRIPOS>BOND
     1    21    22    1
     2    22    19    1
     3    19    20    2
     4    19     1    1
     5     1     2    2
     6     2     3    1
     7     2     4    1
     8     4     5    1
     9     5     6    1
    10     5     7    2
    11     7    23    1
    12    23    24    2
    13    23    25    1
    14    25    26    1
    15     7     8    1
    16     8    10    1
    17    10    11   ar
    18    11    12   ar
    19    12    13   ar
    20    13    14   ar
    21    14    15   ar
    22    15    16    1
    23    16    17    2
    24    16    18    1
    25     8     1    1
    26    15    10   ar
    27     4     9    1
@<TRIPOS>MOLECULE
*****
 26 27 0 0 0
SMALL
GASTEIGER

@<TRIPOS>ATOM
      1 C         -13.5981   -6.1427   17.7642 C.2     1  UNL1        0.0709
      2 C         -13.2518   -7.6000   17.8418 C.2     1  UNL1        0.0283
      3 C         -14.3025   -8.6360   17.5714 C.3     1  UNL1        0.0470
      4 N         -11.8550   -8.0216   18.1897 N.pl3   1  UNL1       -0.3192
      5 C         -10.8044   -6.9857   18.4600 C.2     1  UNL1        0.0283
      6 C          -9.4075   -7.4072   18.8080 C.3     1  UNL1        0.0470
      7 C         -11.1506   -5.5283   18.3824 C.2     1  UNL1        0.0709
      8 C         -12.5475   -5.1068   18.0345 C.3     1  UNL1        0.0872
      9 H         -11.6277   -8.9781   18.2406 H       1  UNL1        0.1516
     10 C         -12.8938   -3.6493   17.9569 C.ar    1  UNL1        0.0554
     11 C         -12.7169   -2.9040   16.6672 C.ar    1  UNL1        0.0024
     12 C         -13.0631   -1.4466   16.5896 C.ar    1  UNL1        0.0001
     13 C         -13.5862   -0.7344   17.8017 C.ar    1  UNL1        0.0063
     14 C         -13.7631   -1.4797   19.0914 C.ar    1  UNL1        0.0749
     15 C         -13.4169   -2.9371   19.1690 C.ar    1  UNL1        0.2866
     16 N         -13.5938   -3.6824   20.4587 N.pl3   1  UNL1        0.0806
     17 O         -13.6223   -5.1362   20.8266 O.2     1  UNL1        0.0415
     18 O         -13.7959   -2.9278   21.7393 O.co2   1  UNL1       -0.5760
     19 C         -14.9950   -5.7211   17.4162 C.2     1  UNL1        0.3388
     20 O         -15.4329   -5.6873   15.9820 O.2     1  UNL1       -0.2452
     21 C         -16.6836   -6.3941   19.2725 C.3     1  UNL1        0.2559
     22 O         -15.9540   -5.3335   18.5025 O.3     1  UNL1       -0.4415
     23 C         -10.1000   -4.4923   18.6528 C.2     1  UNL1        0.3388
     24 O          -9.6881   -4.2772   19.3005 O.2     1  UNL1       -0.2452
     25 O          -9.6292   -3.5952   17.5467 O.3     1  UNL1       -0.4415
     26 C          -8.9550   -4.1808   16.3415 C.3     1  UNL1        0.2559
@<TRIPOS>UNITY_ATOM_ATTR
16 1
charge 1
18 1
charge -1
@<TRIPOS>BOND
     1    21    22    1
     2    22    19    1
     3    19    20    2
     4    19     1    1
     5     1     2    2
     6     2     3    1
     7     2     4    1
     8     4     5    1
     9     5     6    1
    10     5     7    2
    11     7    23    1
    12    23    24    2
    13    23    25    1
    14    25    26    1
    15     7     8    1
    16     8    10    1
    17    10    11   ar
    18    11    12   ar
    19    12    13   ar
    20    13    14   ar
    21    14    15   ar
    22    15    16    1
    23    16    17    2
    24    16    18    1
    25     8     1    1
    26    15    10   ar
    27     4     9    1
@<TRIPOS>MOLECULE
*****
 26 27 0 0 0
SMALL
GASTEIGER

@<TRIPOS>ATOM
      1 C           4.0287   -0.8152   19.4428 C.2     1  UNL1        0.0709
      2 C           4.0255   -1.4430   18.0805 C.2     1  UNL1        0.0283
      3 C           3.8045   -0.5938   16.8639 C.3     1  UNL1        0.0470
      4 N           4.2433   -2.9199   17.9348 N.pl3   1  UNL1       -0.3192
      5 C           4.4643   -3.7690   19.1514 C.2     1  UNL1        0.0283
      6 C           4.6821   -5.2460   19.0056 C.3     1  UNL1        0.0470
      7 C           4.4675   -3.1413   20.5136 C.2     1  UNL1        0.0709
      8 C           4.2496   -1.6643   20.6593 C.3     1  UNL1        0.0872
      9 H           4.2412   -3.3319   17.0407 H       1  UNL1        0.1516
     10 C           4.2528   -1.0366   22.0217 C.ar    1  UNL1        0.0554
     11 C           2.9865   -0.9783   22.8236 C.ar    1  UNL1        0.0024
     12 C           2.9896   -0.3506   24.1859 C.ar    1  UNL1        0.0001
     13 C           4.2591    0.2189   24.7464 C.ar    1  UNL1        0.0063
     14 C           5.5255    0.1607   23.9445 C.ar    1  UNL1        0.0749
     15 C           5.5223   -0.4671   22.5822 C.ar    1  UNL1        0.2866
     16 N           6.7886   -0.5254   21.7803 N.pl3   1  UNL1        0.0806
     17 O           7.6472   -1.6436   21.2682 O.2     1  UNL1        0.0415
     18 O           7.4472    0.7432   21.3252 O.co2   1  UNL1       -0.5760
     19 C           3.8108    0.6617   19.5885 C.2     1  UNL1        0.3388
     20 O           4.9635    1.6088   19.4329 O.2     1  UNL1       -0.2452
     21 C           1.2342    0.3337   19.6461 C.3     1  UNL1        0.2559
     22 O           2.4403    1.1916   19.8898 O.3     1  UNL1       -0.4415
     23 C           4.6885   -3.9904   21.7303 C.2     1  UNL1        0.3388
     24 O           4.2034   -4.3722   22.2347 O.2     1  UNL1       -0.2452
     25 O           6.0827   -4.2603   22.2133 O.3     1  UNL1       -0.4415
     26 C           6.4514   -3.9730   23.6386 C.3     1  UNL1        0.2559
@<TRIPOS>UNITY_ATOM_ATTR
16 1
charge 1
18 1
charge -1
@<TRIPOS>BOND
     1    21    22    1
     2    22    19    1
     3    19    20    2
     4    19     1    1
     5     1     2    2
     6     2     3    1
     7     2     4    1
     8     4     5    1
     9     5     6    1
    10     5     7    2
    11     7    23    1
    12    23    24    2
    13    23    25    1
    14    25    26    1
    15     7     8    1
    16     8    10    1
    17    10    11   ar
    18    11    12   ar
    19    12    13   ar
    20    13    14   ar
    21    14    15   ar
    22    15    16    1
    23    16    17    2
    24    16    18    1
    25     8     1    1
    26    15    10   ar
    27     4     9    1
