@<TRIPOS>MOLECULE
*****
 19 20 0 0 0
SMALL
GASTEIGER

@<TRIPOS>ATOM
      1 C          -7.0423  -20.2460   22.3435 C.2     1  UNL1        0.0033
      2 C          -8.1209  -19.2097   22.4552 C.2     1  UNL1        0.0435
      3 C          -3.0778  -19.1776   20.5019 C.ar    1  UNL1        0.1448
      4 C          -3.9829  -20.1582   19.8171 C.ar    1  UNL1        0.0374
      5 C          -5.3044  -20.5144   20.4310 C.ar    1  UNL1        0.0031
      6 C          -5.7208  -19.8898   21.7296 C.ar    1  UNL1        0.0008
      7 C          -4.8157  -18.9091   22.4144 C.ar    1  UNL1        0.0097
      8 C          -3.4942  -18.5530   21.8005 C.ar    1  UNL1        0.0685
      9 BR         -2.5890  -17.5723   22.4854 Br      1  UNL1       -0.0458
     10 C          -1.6943  -17.8301   18.7641 C.3     1  UNL1        0.2525
     11 O          -1.7563  -18.8214   19.8880 O.3     1  UNL1       -0.4709
     12 C          -9.4424  -19.5658   23.0691 C.2     1  UNL1        0.2111
     13 O          -9.5288  -20.6803   24.0693 O.2     1  UNL1       -0.2850
     14 C         -10.6776  -18.8075   22.6826 C.ar    1  UNL1        0.0961
     15 C         -11.8390  -18.4978   23.5801 C.ar    1  UNL1        0.0218
     16 C         -12.8474  -17.7246   22.7831 C.ar    1  UNL1        0.0200
     17 C         -12.3093  -17.5565   21.3930 C.ar    1  UNL1        0.0725
     18 N         -10.9683  -18.2257   21.3310 N.ar    1  UNL1       -0.3495
     19 H         -10.3819  -18.2745   20.5417 H       1  UNL1        0.1661
@<TRIPOS>BOND
     1    10    11    1
     2    11     3    1
     3     3     4   ar
     4     4     5   ar
     5     5     6   ar
     6     6     1    1
     7     1     2    2
     8     2    12    1
     9    12    13    2
    10    12    14    1
    11    14    15   ar
    12    15    16   ar
    13    16    17   ar
    14    17    18   ar
    15     6     7   ar
    16     7     8   ar
    17     8     9    1
    18     8     3   ar
    19    18    14   ar
    20    18    19    1
@<TRIPOS>MOLECULE
*****
 19 20 0 0 0
SMALL
GASTEIGER

@<TRIPOS>ATOM
      1 C          -7.2655  -18.0788   22.7506 C.2     1  UNL1        0.0033
      2 C          -7.7614  -16.6654   22.8296 C.2     1  UNL1        0.0435
      3 C          -2.9943  -18.9038   21.5991 C.ar    1  UNL1        0.1448
      4 C          -3.3001  -17.9287   22.6971 C.ar    1  UNL1        0.0374
      5 C          -4.7239  -17.6537   23.0810 C.ar    1  UNL1        0.0031
      6 C          -5.8418  -18.3538   22.3668 C.ar    1  UNL1        0.0008
      7 C          -5.5360  -19.3289   21.2688 C.ar    1  UNL1        0.0097
      8 C          -4.1122  -19.6039   20.8850 C.ar    1  UNL1        0.0685
      9 BR         -3.8065  -20.5791   19.7870 Br      1  UNL1       -0.0458
     10 C          -0.8748  -18.2896   20.2279 C.3     1  UNL1        0.2525
     11 O          -1.5706  -19.1789   21.2153 O.3     1  UNL1       -0.4709
     12 C          -9.1851  -16.3903   23.2134 C.2     1  UNL1        0.2111
     13 O          -9.4996  -15.8039   24.5577 O.2     1  UNL1       -0.2850
     14 C         -10.2944  -16.7018   22.2529 C.ar    1  UNL1        0.0961
     15 C         -11.6393  -17.2616   22.6107 C.ar    1  UNL1        0.0218
     16 C         -12.4297  -17.4139   21.3449 C.ar    1  UNL1        0.0200
     17 C         -11.5732  -16.9483   20.2048 C.ar    1  UNL1        0.0725
     18 N         -10.2536  -16.5082   20.7660 N.ar    1  UNL1       -0.3495
     19 H          -9.4940  -16.1544   20.2492 H       1  UNL1        0.1661
@<TRIPOS>BOND
     1    10    11    1
     2    11     3    1
     3     3     4   ar
     4     4     5   ar
     5     5     6   ar
     6     6     1    1
     7     1     2    2
     8     2    12    1
     9    12    13    2
    10    12    14    1
    11    14    15   ar
    12    15    16   ar
    13    16    17   ar
    14    17    18   ar
    15     6     7   ar
    16     7     8   ar
    17     8     9    1
    18     8     3   ar
    19    18    14   ar
    20    18    19    1
@<TRIPOS>MOLECULE
*****
 19 20 0 0 0
SMALL
GASTEIGER

@<TRIPOS>ATOM
      1 C          -6.7927  -20.0430   20.4586 C.2     1  UNL1        0.0033
      2 C          -7.6462  -19.3832   19.4165 C.2     1  UNL1        0.0435
      3 C          -2.5156  -18.7570   21.0087 C.ar    1  UNL1        0.1448
      4 C          -2.9350  -19.4456   19.7438 C.ar    1  UNL1        0.0374
      5 C          -4.3607  -19.8743   19.5605 C.ar    1  UNL1        0.0031
      6 C          -5.3670  -19.6144   20.6420 C.ar    1  UNL1        0.0008
      7 C          -4.9476  -18.9257   21.9068 C.ar    1  UNL1        0.0097
      8 C          -3.5219  -18.4971   22.0902 C.ar    1  UNL1        0.0685
      9 BR         -3.1026  -17.8084   23.3551 Br      1  UNL1       -0.0458
     10 C          -0.2417  -18.0133   19.9957 C.3     1  UNL1        0.2525
     11 O          -1.0899  -18.3283   21.1920 O.3     1  UNL1       -0.4709
     12 C          -9.0719  -19.8118   19.2332 C.2     1  UNL1        0.2111
     13 O          -9.4187  -20.8398   18.1974 O.2     1  UNL1       -0.2850
     14 C         -10.1508  -19.2125   20.0857 C.ar    1  UNL1        0.0961
     15 C         -10.5870  -19.7073   21.4329 C.ar    1  UNL1        0.0218
     16 C         -11.6887  -18.8138   21.9206 C.ar    1  UNL1        0.0200
     17 C         -11.9334  -17.7667   20.8748 C.ar    1  UNL1        0.0725
     18 N         -10.9830  -18.0131   19.7408 N.ar    1  UNL1       -0.3495
     19 H         -10.9169  -17.4811   18.9151 H       1  UNL1        0.1661
@<TRIPOS>BOND
     1    10    11    1
     2    11     3    1
     3     3     4   ar
     4     4     5   ar
     5     5     6   ar
     6     6     1    1
     7     1     2    2
     8     2    12    1
     9    12    13    2
    10    12    14    1
    11    14    15   ar
    12    15    16   ar
    13    16    17   ar
    14    17    18   ar
    15     6     7   ar
    16     7     8   ar
    17     8     9    1
    18     8     3   ar
    19    18    14   ar
    20    18    19    1
@<TRIPOS>MOLECULE
*****
 19 20 0 0 0
SMALL
GASTEIGER

@<TRIPOS>ATOM
      1 C          -6.7172  -20.0889   20.7384 C.2     1  UNL1        0.0033
      2 C          -5.6170  -19.2813   20.1161 C.2     1  UNL1        0.0435
      3 C         -10.8585  -18.3621   21.0811 C.ar    1  UNL1        0.1448
      4 C         -10.3584  -18.8540   19.7553 C.ar    1  UNL1        0.0374
      5 C          -8.9779  -19.4296   19.6411 C.ar    1  UNL1        0.0031
      6 C          -8.0976  -19.5133   20.8526 C.ar    1  UNL1        0.0008
      7 C          -8.5977  -19.0214   22.1785 C.ar    1  UNL1        0.0097
      8 C          -9.9782  -18.4459   22.2927 C.ar    1  UNL1        0.0685
      9 BR        -10.4783  -17.9540   23.6187 Br      1  UNL1       -0.0458
     10 C         -12.4895  -16.3574   20.8151 C.3     1  UNL1        0.2525
     11 O         -12.2390  -17.7866   21.1954 O.3     1  UNL1       -0.4709
     12 C          -4.2365  -19.8569   20.0019 C.2     1  UNL1        0.2111
     13 O          -4.0498  -21.3407   19.8874 O.2     1  UNL1       -0.2850
     14 C          -3.0428  -18.9485   20.0021 C.ar    1  UNL1        0.0961
     15 C          -2.7906  -17.8237   19.0422 C.ar    1  UNL1        0.0218
     16 C          -1.4837  -17.1855   19.4090 C.ar    1  UNL1        0.0200
     17 C          -0.9282  -17.9158   20.5957 C.ar    1  UNL1        0.0725
     18 N          -1.8918  -19.0053   20.9622 N.ar    1  UNL1       -0.3495
     19 H          -1.7871  -19.6454   21.7029 H       1  UNL1        0.1661
@<TRIPOS>BOND
     1    10    11    1
     2    11     3    1
     3     3     4   ar
     4     4     5   ar
     5     5     6   ar
     6     6     1    1
     7     1     2    2
     8     2    12    1
     9    12    13    2
    10    12    14    1
    11    14    15   ar
    12    15    16   ar
    13    16    17   ar
    14    17    18   ar
    15     6     7   ar
    16     7     8   ar
    17     8     9    1
    18     8     3   ar
    19    18    14   ar
    20    18    19    1
@<TRIPOS>MOLECULE
*****
 19 20 0 0 0
SMALL
GASTEIGER

@<TRIPOS>ATOM
      1 C          -6.8834  -19.6887   21.3659 C.2     1  UNL1        0.0033
      2 C          -8.0825  -18.9089   20.9141 C.2     1  UNL1        0.0435
      3 C          -2.7444  -18.1038   20.5867 C.ar    1  UNL1        0.1448
      4 C          -3.5854  -18.5974   19.4470 C.ar    1  UNL1        0.0374
      5 C          -4.9650  -19.1257   19.7067 C.ar    1  UNL1        0.0031
      6 C          -5.5037  -19.1604   21.1062 C.ar    1  UNL1        0.0008
      7 C          -4.6628  -18.6667   22.2459 C.ar    1  UNL1        0.0097
      8 C          -3.2831  -18.1384   21.9862 C.ar    1  UNL1        0.0685
      9 BR         -2.4422  -17.6447   23.1260 Br      1  UNL1       -0.0458
     10 C          -0.2801  -18.5043   19.8680 C.3     1  UNL1        0.2525
     11 O          -1.3648  -17.5755   20.3270 O.3     1  UNL1       -0.4709
     12 C          -9.4621  -19.4372   21.1739 C.2     1  UNL1        0.2111
     13 O         -10.3052  -19.9256   20.0335 O.2     1  UNL1       -0.2850
     14 C          -9.9986  -19.4771   22.5741 C.ar    1  UNL1        0.0961
     15 C         -11.2251  -18.7692   23.0688 C.ar    1  UNL1        0.0218
     16 C         -11.3874  -19.0864   24.5259 C.ar    1  UNL1        0.0200
     17 C         -10.2612  -19.9904   24.9317 C.ar    1  UNL1        0.0725
     18 N          -9.4030  -20.2318   23.7254 N.ar    1  UNL1       -0.3495
     19 H          -8.5912  -20.7880   23.6947 H       1  UNL1        0.1661
@<TRIPOS>BOND
     1    10    11    1
     2    11     3    1
     3     3     4   ar
     4     4     5   ar
     5     5     6   ar
     6     6     1    1
     7     1     2    2
     8     2    12    1
     9    12    13    2
    10    12    14    1
    11    14    15   ar
    12    15    16   ar
    13    16    17   ar
    14    17    18   ar
    15     6     7   ar
    16     7     8   ar
    17     8     9    1
    18     8     3   ar
    19    18    14   ar
    20    18    19    1
@<TRIPOS>MOLECULE
*****
 19 20 0 0 0
SMALL
GASTEIGER

@<TRIPOS>ATOM
      1 C         -12.9265   -5.6501   19.3069 C.2     1  UNL1        0.0033
      2 C         -11.6552   -5.6067   18.5121 C.2     1  UNL1        0.0435
      3 C         -16.0560   -8.7475   18.3784 C.ar    1  UNL1        0.1448
      4 C         -14.6463   -8.9399   17.9035 C.ar    1  UNL1        0.0374
      5 C         -13.6031   -7.9074   18.2130 C.ar    1  UNL1        0.0031
      6 C         -13.9697   -6.6826   18.9974 C.ar    1  UNL1        0.0008
      7 C         -15.3794   -6.4902   19.4723 C.ar    1  UNL1        0.0097
      8 C         -16.4226   -7.5227   19.1628 C.ar    1  UNL1        0.0685
      9 BR        -17.8324   -7.3303   19.6378 Br      1  UNL1       -0.0458
     10 C         -17.0303  -11.1325   18.7137 C.3     1  UNL1        0.2525
     11 O         -17.0992   -9.7800   18.0689 O.3     1  UNL1       -0.4709
     12 C         -10.6121   -4.5742   18.8216 C.2     1  UNL1        0.2111
     13 O          -9.3596   -4.9675   19.5473 O.2     1  UNL1       -0.2850
     14 C         -10.8213   -3.1484   18.4053 C.ar    1  UNL1        0.0961
     15 C         -11.7414   -2.1636   19.0639 C.ar    1  UNL1        0.0218
     16 C         -11.6360   -0.8636   18.3231 C.ar    1  UNL1        0.0200
     17 C         -10.6508   -1.0449   17.2066 C.ar    1  UNL1        0.0725
     18 N         -10.1474   -2.4570   17.2574 N.ar    1  UNL1       -0.3495
     19 H          -9.4900   -2.8593   16.6449 H       1  UNL1        0.1661
@<TRIPOS>BOND
     1    10    11    1
     2    11     3    1
     3     3     4   ar
     4     4     5   ar
     5     5     6   ar
     6     6     1    1
     7     1     2    2
     8     2    12    1
     9    12    13    2
    10    12    14    1
    11    14    15   ar
    12    15    16   ar
    13    16    17   ar
    14    17    18   ar
    15     6     7   ar
    16     7     8   ar
    17     8     9    1
    18     8     3   ar
    19    18    14   ar
    20    18    19    1
@<TRIPOS>MOLECULE
*****
 19 20 0 0 0
SMALL
GASTEIGER

@<TRIPOS>ATOM
      1 C         -15.8510   -7.9558   19.2290 C.2     1  UNL1        0.0033
      2 C         -15.6990   -9.3863   18.8042 C.2     1  UNL1        0.0435
      3 C         -12.2925   -5.2019   19.1740 C.ar    1  UNL1        0.1448
      4 C         -12.1934   -6.5678   18.5620 C.ar    1  UNL1        0.0374
      5 C         -13.3795   -7.4858   18.5804 C.ar    1  UNL1        0.0031
      6 C         -14.6648   -7.0379   19.2106 C.ar    1  UNL1        0.0008
      7 C         -14.7640   -5.6720   19.8226 C.ar    1  UNL1        0.0097
      8 C         -13.5778   -4.7540   19.8042 C.ar    1  UNL1        0.0685
      9 BR        -13.6770   -3.3881   20.4162 Br      1  UNL1       -0.0458
     10 C          -9.7185   -4.8523   19.1264 C.3     1  UNL1        0.2525
     11 O         -11.1063   -4.2840   19.1556 O.3     1  UNL1       -0.4709
     12 C         -16.8851  -10.3043   18.8225 C.2     1  UNL1        0.2111
     13 O         -16.6833  -11.7894   18.8843 O.2     1  UNL1       -0.2850
     14 C         -18.2732   -9.7372   18.7790 C.ar    1  UNL1        0.0961
     15 C         -19.0003   -9.2791   17.5496 C.ar    1  UNL1        0.0218
     16 C         -20.3542   -8.7874   17.9680 C.ar    1  UNL1        0.0200
     17 C         -20.4638   -8.9415   19.4561 C.ar    1  UNL1        0.0725
     18 N         -19.1776   -9.5285   19.9573 N.ar    1  UNL1       -0.3495
     19 H         -18.9645   -9.7397   20.8950 H       1  UNL1        0.1661
@<TRIPOS>BOND
     1    10    11    1
     2    11     3    1
     3     3     4   ar
     4     4     5   ar
     5     5     6   ar
     6     6     1    1
     7     1     2    2
     8     2    12    1
     9    12    13    2
    10    12    14    1
    11    14    15   ar
    12    15    16   ar
    13    16    17   ar
    14    17    18   ar
    15     6     7   ar
    16     7     8   ar
    17     8     9    1
    18     8     3   ar
    19    18    14   ar
    20    18    19    1
@<TRIPOS>MOLECULE
*****
 19 20 0 0 0
SMALL
GASTEIGER

@<TRIPOS>ATOM
      1 C          -7.7047  -19.1047   21.7451 C.2     1  UNL1        0.0033
      2 C          -8.4858  -19.0963   20.4646 C.2     1  UNL1        0.0435
      3 C          -3.2061  -19.0717   21.6369 C.ar    1  UNL1        0.1448
      4 C          -3.9367  -18.2949   22.6918 C.ar    1  UNL1        0.0374
      5 C          -5.4362  -18.3059   22.7278 C.ar    1  UNL1        0.0031
      6 C          -6.2052  -19.0937   21.7091 C.ar    1  UNL1        0.0008
      7 C          -5.4746  -19.8705   20.6542 C.ar    1  UNL1        0.0097
      8 C          -3.9751  -19.8596   20.6181 C.ar    1  UNL1        0.0685
      9 BR         -3.2445  -20.6365   19.5632 Br      1  UNL1       -0.0458
     10 C          -0.9842  -18.0632   20.7447 C.3     1  UNL1        0.2525
     11 O          -1.7066  -19.0608   21.6009 O.3     1  UNL1       -0.4709
     12 C          -9.9853  -19.1073   20.5007 C.2     1  UNL1        0.2111
     13 O         -10.7605  -19.5972   19.3137 O.2     1  UNL1       -0.2850
     14 C         -10.7096  -18.6282   21.7238 C.ar    1  UNL1        0.0961
     15 C         -11.1977  -19.4873   22.8525 C.ar    1  UNL1        0.0218
     16 C         -11.8627  -18.5961   23.8592 C.ar    1  UNL1        0.0200
     17 C         -11.7857  -17.1863   23.3527 C.ar    1  UNL1        0.0725
     18 N         -11.0731  -17.2062   22.0330 N.ar    1  UNL1       -0.3495
     19 H         -10.8781  -16.4233   21.4687 H       1  UNL1        0.1661
@<TRIPOS>BOND
     1    10    11    1
     2    11     3    1
     3     3     4   ar
     4     4     5   ar
     5     5     6   ar
     6     6     1    1
     7     1     2    2
     8     2    12    1
     9    12    13    2
    10    12    14    1
    11    14    15   ar
    12    15    16   ar
    13    16    17   ar
    14    17    18   ar
    15     6     7   ar
    16     7     8   ar
    17     8     9    1
    18     8     3   ar
    19    18    14   ar
    20    18    19    1
@<TRIPOS>MOLECULE
*****
 19 20 0 0 0
SMALL
GASTEIGER

@<TRIPOS>ATOM
      1 C         -15.3513   -7.2099   19.2268 C.2     1  UNL1        0.0033
      2 C         -14.9378   -8.3459   18.3388 C.2     1  UNL1        0.0435
      3 C         -12.8050   -3.5081   19.4777 C.ar    1  UNL1        0.1448
      4 C         -12.1584   -4.8573   19.3698 C.ar    1  UNL1        0.0374
      5 C         -13.0072   -6.0912   19.2862 C.ar    1  UNL1        0.0031
      6 C         -14.5025   -5.9760   19.3104 C.ar    1  UNL1        0.0008
      7 C         -15.1491   -4.6268   19.4183 C.ar    1  UNL1        0.0097
      8 C         -14.3003   -3.3929   19.5020 C.ar    1  UNL1        0.0685
      9 BR        -14.9470   -2.0437   19.6099 Br      1  UNL1       -0.0458
     10 C         -11.1966   -1.8033   18.3567 C.3     1  UNL1        0.2525
     11 O         -11.9562   -2.2742   19.5613 O.3     1  UNL1       -0.4709
     12 C         -15.7866   -9.5798   18.2551 C.2     1  UNL1        0.2111
     13 O         -15.1402  -10.9277   18.1311 O.2     1  UNL1       -0.2850
     14 C         -17.2817   -9.4658   18.2956 C.ar    1  UNL1        0.0961
     15 C         -18.1704   -9.1100   17.1407 C.ar    1  UNL1        0.0218
     16 C         -19.5886   -9.1119   17.6292 C.ar    1  UNL1        0.0200
     17 C         -19.5764   -9.4688   19.0862 C.ar    1  UNL1        0.0725
     18 N         -18.1507   -9.6875   19.4979 N.ar    1  UNL1       -0.3495
     19 H         -17.8399   -9.9335   20.3991 H       1  UNL1        0.1661
@<TRIPOS>BOND
     1    10    11    1
     2    11     3    1
     3     3     4   ar
     4     4     5   ar
     5     5     6   ar
     6     6     1    1
     7     1     2    2
     8     2    12    1
     9    12    13    2
    10    12    14    1
    11    14    15   ar
    12    15    16   ar
    13    16    17   ar
    14    17    18   ar
    15     6     7   ar
    16     7     8   ar
    17     8     9    1
    18     8     3   ar
    19    18    14   ar
    20    18    19    1
