@<TRIPOS>MOLECULE
*****
 34 38 0 0 0
SMALL
GASTEIGER

@<TRIPOS>ATOM
      1 N          -7.4964  -18.7152   21.7586 N.3     1  UNL1       -0.2641
      2 C          -8.8215  -19.1064   22.3426 C.3     1  UNL1        0.0981
      3 C          -8.8938  -20.1856   23.3819 C.3     1  UNL1        0.0224
      4 C         -10.2188  -20.5769   23.9660 C.3     1  UNL1        0.0065
      5 C         -11.4716  -19.8889   23.5108 C.3     1  UNL1        0.0277
      6 C         -11.3993  -18.8097   22.4716 C.ar    1  UNL1       -0.0073
      7 C         -12.6521  -18.1217   22.0164 C.ar    1  UNL1       -0.0015
      8 C         -12.5798  -17.0425   20.9771 C.ar    1  UNL1        0.0203
      9 C         -11.2548  -16.6513   20.3930 C.ar    1  UNL1        0.0985
     10 N         -10.0020  -17.3392   20.8482 N.ar    1  UNL1       -0.2471
     11 C         -10.0742  -18.4185   21.8875 C.ar    1  UNL1        0.0695
     12 C          -6.6203  -19.7543   21.1240 C.3     1  UNL1        0.0994
     13 C          -2.2665  -18.8840   20.3912 C.ar    1  UNL1       -0.0066
     14 C          -2.7274  -19.3090   21.7539 C.ar    1  UNL1       -0.0032
     15 C          -4.1787  -19.5991   21.9981 C.ar    1  UNL1       -0.0032
     16 C          -5.1691  -19.4642   20.8797 C.ar    1  UNL1       -0.0062
     17 C          -4.7082  -19.0392   19.5170 C.ar    1  UNL1       -0.0032
     18 C          -3.2569  -18.7491   19.2727 C.ar    1  UNL1       -0.0032
     19 N          -0.3898  -17.9099   18.8816 N.3     1  UNL1       -0.3175
     20 C          -0.8152  -18.5939   20.1470 C.3     1  UNL1        0.0922
     21 H           0.6236  -17.7933   18.8823 H       1  UNL1        0.1192
     22 H          -0.8372  -16.9952   18.8225 H       1  UNL1        0.1192
     23 C          -7.0474  -17.2849   21.8091 C.3     1  UNL1        0.0888
     24 C          -6.7787  -16.6294   23.1313 C.3     1  UNL1        0.0748
     25 C          -7.8949  -16.4406   24.1154 C.3     1  UNL1        0.0432
     26 C          -7.6262  -15.7850   25.4376 C.ar    1  UNL1       -0.0234
     27 C          -8.7423  -15.5962   26.4217 C.ar    1  UNL1       -0.0045
     28 C          -8.4736  -14.9407   27.7438 C.ar    1  UNL1       -0.0003
     29 C          -7.0887  -14.4740   28.0818 C.ar    1  UNL1       -0.0003
     30 C          -5.9725  -14.6628   27.0977 C.ar    1  UNL1       -0.0032
     31 C          -6.2413  -15.3183   25.7756 C.ar    1  UNL1       -0.0103
     32 C          -5.1251  -15.5072   24.7914 C.3     1  UNL1        0.0953
     33 N          -5.3938  -16.1627   23.4693 N.3     1  UNL1       -0.2934
     34 H          -4.7866  -16.9806   23.4173 H       1  UNL1        0.1236
@<TRIPOS>BOND
     1    19    20    1
     2    20    13    1
     3    13    14   ar
     4    14    15   ar
     5    15    16   ar
     6    16    12    1
     7    12     1    1
     8     1    23    1
     9    24    23    1
    10    24    25    1
    11    25    26    1
    12    26    27   ar
    13    27    28   ar
    14    28    29   ar
    15    29    30   ar
    16    30    31   ar
    17    31    32    1
    18    32    33    1
    19     2     1    1
    20     2     3    1
    21     3     4    1
    22     4     5    1
    23     5     6    1
    24     6     7   ar
    25     7     8   ar
    26     8     9   ar
    27     9    10   ar
    28    10    11   ar
    29    16    17   ar
    30    17    18   ar
    31    18    13   ar
    32    33    24    1
    33    11     2    1
    34    31    26   ar
    35    11     6   ar
    36    19    21    1
    37    19    22    1
    38    33    34    1
@<TRIPOS>MOLECULE
*****
 34 38 0 0 0
SMALL
GASTEIGER

@<TRIPOS>ATOM
      1 N          -8.7576  -17.5201   21.2309 N.3     1  UNL1       -0.2641
      2 C         -10.2435  -17.3171   21.2617 C.3     1  UNL1        0.0981
      3 C         -10.9298  -16.6253   20.1215 C.3     1  UNL1        0.0224
      4 C         -12.4157  -16.4224   20.1523 C.3     1  UNL1        0.0065
      5 C         -13.2153  -16.9113   21.3234 C.3     1  UNL1        0.0277
      6 C         -12.5290  -17.6032   22.4637 C.ar    1  UNL1       -0.0073
      7 C         -13.3286  -18.0922   23.6348 C.ar    1  UNL1       -0.0015
      8 C         -12.6423  -18.7840   24.7751 C.ar    1  UNL1        0.0203
      9 C         -11.1564  -18.9870   24.7443 C.ar    1  UNL1        0.0985
     10 N         -10.3568  -18.4980   23.5732 N.ar    1  UNL1       -0.2471
     11 C         -11.0431  -17.8061   22.4328 C.ar    1  UNL1        0.0695
     12 C          -8.1922  -18.8828   20.9605 C.3     1  UNL1        0.0994
     13 C          -3.7436  -19.5437   21.1117 C.ar    1  UNL1       -0.0066
     14 C          -4.4188  -19.2830   19.7979 C.ar    1  UNL1       -0.0032
     15 C          -5.9017  -19.0627   19.7475 C.ar    1  UNL1       -0.0032
     16 C          -6.7093  -19.1031   21.0109 C.ar    1  UNL1       -0.0062
     17 C          -6.0341  -19.3638   22.3247 C.ar    1  UNL1       -0.0032
     18 C          -4.5512  -19.5841   22.3751 C.ar    1  UNL1       -0.0032
     19 N          -1.3920  -18.8401   21.9633 N.3     1  UNL1       -0.3175
     20 C          -2.2607  -19.7640   21.1621 C.3     1  UNL1        0.0922
     21 H          -0.4189  -19.1357   21.8857 H       1  UNL1        0.1192
     22 H          -1.6786  -18.8672   22.9418 H       1  UNL1        0.1192
     23 C          -7.8371  -16.3602   21.4705 C.3     1  UNL1        0.0888
     24 C          -7.3656  -16.0517   22.8607 C.3     1  UNL1        0.0748
     25 C          -8.3630  -15.8237   23.9577 C.3     1  UNL1        0.0432
     26 C          -7.8915  -15.5152   25.3479 C.ar    1  UNL1       -0.0234
     27 C          -8.8888  -15.2873   26.4448 C.ar    1  UNL1       -0.0045
     28 C          -8.4173  -14.9787   27.8349 C.ar    1  UNL1       -0.0003
     29 C          -6.9484  -14.8981   28.1281 C.ar    1  UNL1       -0.0003
     30 C          -5.9511  -15.1260   27.0311 C.ar    1  UNL1       -0.0032
     31 C          -6.4226  -15.4346   25.6410 C.ar    1  UNL1       -0.0103
     32 C          -5.4252  -15.6625   24.5440 C.3     1  UNL1        0.0953
     33 N          -5.8968  -15.9711   23.1539 N.3     1  UNL1       -0.2934
     34 H          -5.4960  -16.8742   22.9007 H       1  UNL1        0.1236
@<TRIPOS>BOND
     1    19    20    1
     2    20    13    1
     3    13    14   ar
     4    14    15   ar
     5    15    16   ar
     6    16    12    1
     7    12     1    1
     8     1    23    1
     9    24    23    1
    10    24    25    1
    11    25    26    1
    12    26    27   ar
    13    27    28   ar
    14    28    29   ar
    15    29    30   ar
    16    30    31   ar
    17    31    32    1
    18    32    33    1
    19     2     1    1
    20     2     3    1
    21     3     4    1
    22     4     5    1
    23     5     6    1
    24     6     7   ar
    25     7     8   ar
    26     8     9   ar
    27     9    10   ar
    28    10    11   ar
    29    16    17   ar
    30    17    18   ar
    31    18    13   ar
    32    33    24    1
    33    11     2    1
    34    31    26   ar
    35    11     6   ar
    36    19    21    1
    37    19    22    1
    38    33    34    1
@<TRIPOS>MOLECULE
*****
 34 38 0 0 0
SMALL
GASTEIGER

@<TRIPOS>ATOM
      1 N          -7.3874  -19.0493   21.9951 N.3     1  UNL1       -0.2641
      2 C          -6.2505  -19.6623   21.2324 C.3     1  UNL1        0.0981
      3 C          -6.5291  -20.6117   20.1051 C.3     1  UNL1        0.0224
      4 C          -5.3922  -21.2247   19.3425 C.3     1  UNL1        0.0065
      5 C          -3.9766  -20.8883   19.7071 C.3     1  UNL1        0.0277
      6 C          -3.6981  -19.9388   20.8345 C.ar    1  UNL1       -0.0073
      7 C          -2.2825  -19.6023   21.1992 C.ar    1  UNL1       -0.0015
      8 C          -2.0039  -18.6529   22.3265 C.ar    1  UNL1        0.0203
      9 C          -3.1408  -18.0399   23.0892 C.ar    1  UNL1        0.0985
     10 N          -4.5563  -18.3763   22.7245 N.ar    1  UNL1       -0.2471
     11 C          -4.8350  -19.3258   21.5971 C.ar    1  UNL1        0.0695
     12 C          -8.3490  -19.9259   22.7413 C.3     1  UNL1        0.0994
     13 C         -12.4921  -18.4376   23.6738 C.ar    1  UNL1       -0.0066
     14 C         -11.6009  -18.9179   24.7806 C.ar    1  UNL1       -0.0032
     15 C         -10.2199  -19.4140   24.4698 C.ar    1  UNL1       -0.0032
     16 C          -9.7300  -19.4298   23.0522 C.ar    1  UNL1       -0.0062
     17 C         -10.6212  -18.9495   21.9453 C.ar    1  UNL1       -0.0032
     18 C         -12.0023  -18.4534   22.2561 C.ar    1  UNL1       -0.0032
     19 N         -14.5931  -18.4408   25.2022 N.3     1  UNL1       -0.3175
     20 C         -13.8732  -17.9415   23.9846 C.3     1  UNL1        0.0922
     21 H         -15.5122  -18.0020   25.2576 H       1  UNL1        0.1192
     22 H         -14.0538  -18.2070   26.0358 H       1  UNL1        0.1192
     23 C          -7.5629  -17.5597   22.0114 C.3     1  UNL1        0.0888
     24 C          -7.1932  -16.7744   23.2348 C.3     1  UNL1        0.0748
     25 C          -8.1654  -16.6538   24.3707 C.3     1  UNL1        0.0432
     26 C          -7.7958  -15.8684   25.5942 C.ar    1  UNL1       -0.0234
     27 C          -8.7679  -15.7479   26.7301 C.ar    1  UNL1       -0.0045
     28 C          -8.3983  -14.9625   27.9534 C.ar    1  UNL1       -0.0003
     29 C          -7.0564  -14.2978   28.0408 C.ar    1  UNL1       -0.0003
     30 C          -6.0843  -14.4184   26.9049 C.ar    1  UNL1       -0.0032
     31 C          -6.4539  -15.2037   25.6816 C.ar    1  UNL1       -0.0103
     32 C          -5.4818  -15.3243   24.5456 C.3     1  UNL1        0.0953
     33 N          -5.8514  -16.1096   23.3223 N.3     1  UNL1       -0.2934
     34 H          -5.1515  -16.8447   23.2217 H       1  UNL1        0.1236
@<TRIPOS>BOND
     1    19    20    1
     2    20    13    1
     3    13    14   ar
     4    14    15   ar
     5    15    16   ar
     6    16    12    1
     7    12     1    1
     8     1    23    1
     9    24    23    1
    10    24    25    1
    11    25    26    1
    12    26    27   ar
    13    27    28   ar
    14    28    29   ar
    15    29    30   ar
    16    30    31   ar
    17    31    32    1
    18    32    33    1
    19     2     1    1
    20     2     3    1
    21     3     4    1
    22     4     5    1
    23     5     6    1
    24     6     7   ar
    25     7     8   ar
    26     8     9   ar
    27     9    10   ar
    28    10    11   ar
    29    16    17   ar
    30    17    18   ar
    31    18    13   ar
    32    33    24    1
    33    11     2    1
    34    31    26   ar
    35    11     6   ar
    36    19    21    1
    37    19    22    1
    38    33    34    1
@<TRIPOS>MOLECULE
*****
 34 38 0 0 0
SMALL
GASTEIGER

@<TRIPOS>ATOM
      1 N          -7.6499  -18.4832   22.0899 N.3     1  UNL1       -0.2641
      2 C          -9.0326  -18.8296   22.5567 C.3     1  UNL1        0.0981
      3 C          -9.2308  -19.9114   23.5767 C.3     1  UNL1        0.0224
      4 C         -10.6136  -20.2578   24.0435 C.3     1  UNL1        0.0065
      5 C         -11.7982  -19.5226   23.4902 C.3     1  UNL1        0.0277
      6 C         -11.6000  -18.4408   22.4702 C.ar    1  UNL1       -0.0073
      7 C         -12.7846  -17.7055   21.9169 C.ar    1  UNL1       -0.0015
      8 C         -12.5864  -16.6237   20.8969 C.ar    1  UNL1        0.0203
      9 C         -11.2036  -16.2773   20.4301 C.ar    1  UNL1        0.0985
     10 N         -10.0190  -17.0125   20.9833 N.ar    1  UNL1       -0.2471
     11 C         -10.2172  -18.0944   22.0034 C.ar    1  UNL1        0.0695
     12 C          -7.1433  -17.0776   22.2235 C.3     1  UNL1        0.0994
     13 C          -6.7349  -15.2108   26.2975 C.ar    1  UNL1       -0.0066
     14 C          -8.0961  -15.5071   25.7414 C.ar    1  UNL1       -0.0032
     15 C          -8.2322  -16.1294   24.3833 C.ar    1  UNL1       -0.0032
     16 C          -7.0072  -16.4553   23.5815 C.ar    1  UNL1       -0.0062
     17 C          -5.6459  -16.1590   24.1376 C.ar    1  UNL1       -0.0032
     18 C          -5.5098  -15.5367   25.4956 C.ar    1  UNL1       -0.0032
     19 N          -7.7933  -13.9720   28.3212 N.3     1  UNL1       -0.3175
     20 C          -6.5988  -14.5885   27.6555 C.3     1  UNL1        0.0922
     21 H          -7.5212  -13.5998   29.2311 H       1  UNL1        0.1192
     22 H          -8.5163  -14.6806   28.4462 H       1  UNL1        0.1192
     23 C          -6.7736  -19.5422   21.4895 C.3     1  UNL1        0.0888
     24 C          -5.3009  -19.3003   21.3384 C.3     1  UNL1        0.0748
     25 C          -4.7522  -18.8051   20.0332 C.3     1  UNL1        0.0432
     26 C          -3.2795  -18.5633   19.8821 C.ar    1  UNL1       -0.0234
     27 C          -2.7308  -18.0681   18.5769 C.ar    1  UNL1       -0.0045
     28 C          -1.2582  -17.8262   18.4259 C.ar    1  UNL1       -0.0003
     29 C          -0.3343  -18.0796   19.5801 C.ar    1  UNL1       -0.0003
     30 C          -0.8830  -18.5748   20.8853 C.ar    1  UNL1       -0.0032
     31 C          -2.3556  -18.8166   21.0363 C.ar    1  UNL1       -0.0103
     32 C          -2.9043  -19.3119   22.3416 C.3     1  UNL1        0.0953
     33 N          -4.3770  -19.5537   22.4926 N.3     1  UNL1       -0.2934
     34 H          -4.6953  -18.9620   23.2601 H       1  UNL1        0.1236
@<TRIPOS>BOND
     1    19    20    1
     2    20    13    1
     3    13    14   ar
     4    14    15   ar
     5    15    16   ar
     6    16    12    1
     7    12     1    1
     8     1    23    1
     9    24    23    1
    10    24    25    1
    11    25    26    1
    12    26    27   ar
    13    27    28   ar
    14    28    29   ar
    15    29    30   ar
    16    30    31   ar
    17    31    32    1
    18    32    33    1
    19     2     1    1
    20     2     3    1
    21     3     4    1
    22     4     5    1
    23     5     6    1
    24     6     7   ar
    25     7     8   ar
    26     8     9   ar
    27     9    10   ar
    28    10    11   ar
    29    16    17   ar
    30    17    18   ar
    31    18    13   ar
    32    33    24    1
    33    11     2    1
    34    31    26   ar
    35    11     6   ar
    36    19    21    1
    37    19    22    1
    38    33    34    1
@<TRIPOS>MOLECULE
*****
 34 38 0 0 0
SMALL
GASTEIGER

@<TRIPOS>ATOM
      1 N          -8.7010  -17.3291   21.5071 N.3     1  UNL1       -0.2641
      2 C         -10.1878  -17.1553   21.4111 C.3     1  UNL1        0.0981
      3 C         -10.7865  -16.4588   20.2251 C.3     1  UNL1        0.0224
      4 C         -12.2732  -16.2849   20.1291 C.3     1  UNL1        0.0065
      5 C         -13.1614  -16.8075   21.2191 C.3     1  UNL1        0.0277
      6 C         -12.5628  -17.5040   22.4050 C.ar    1  UNL1       -0.0073
      7 C         -13.4509  -18.0266   23.4951 C.ar    1  UNL1       -0.0015
      8 C         -12.8523  -18.7230   24.6811 C.ar    1  UNL1        0.0203
      9 C         -11.3655  -18.8969   24.7771 C.ar    1  UNL1        0.0985
     10 N         -10.4774  -18.3743   23.6871 N.ar    1  UNL1       -0.2471
     11 C         -11.0760  -17.6778   22.5011 C.ar    1  UNL1        0.0695
     12 C          -7.8367  -16.1772   21.9265 C.3     1  UNL1        0.0994
     13 C          -6.9785  -15.4794   26.2885 C.ar    1  UNL1       -0.0066
     14 C          -8.3963  -15.5256   25.8011 C.ar    1  UNL1       -0.0032
     15 C          -8.6824  -15.7582   24.3471 C.ar    1  UNL1       -0.0032
     16 C          -7.5507  -15.9446   23.3805 C.ar    1  UNL1       -0.0062
     17 C          -6.1327  -15.8983   23.8679 C.ar    1  UNL1       -0.0032
     18 C          -5.8466  -15.6658   25.3218 C.ar    1  UNL1       -0.0032
     19 N          -6.8144  -13.8676   28.3196 N.3     1  UNL1       -0.3175
     20 C          -6.6924  -15.2468   27.7424 C.3     1  UNL1        0.0922
     21 H          -6.5851  -13.8933   29.3131 H       1  UNL1        0.1192
     22 H          -7.7702  -13.5322   28.1998 H       1  UNL1        0.1192
     23 C          -8.0785  -18.6549   21.1837 C.3     1  UNL1        0.0888
     24 C          -6.5886  -18.8183   21.2428 C.3     1  UNL1        0.0748
     25 C          -5.7488  -18.4778   20.0475 C.3     1  UNL1        0.0432
     26 C          -4.2588  -18.6412   20.1065 C.ar    1  UNL1       -0.0234
     27 C          -3.4191  -18.3007   18.9112 C.ar    1  UNL1       -0.0045
     28 C          -1.9292  -18.4641   18.9703 C.ar    1  UNL1       -0.0003
     29 C          -1.2791  -18.9680   20.2247 C.ar    1  UNL1       -0.0003
     30 C          -2.1189  -19.3085   21.4199 C.ar    1  UNL1       -0.0032
     31 C          -3.6087  -19.1451   21.3609 C.ar    1  UNL1       -0.0103
     32 C          -4.4486  -19.4856   22.5562 C.3     1  UNL1        0.0953
     33 N          -5.9385  -19.3222   22.4971 N.3     1  UNL1       -0.2934
     34 H          -6.1933  -18.6736   23.2419 H       1  UNL1        0.1236
@<TRIPOS>BOND
     1    19    20    1
     2    20    13    1
     3    13    14   ar
     4    14    15   ar
     5    15    16   ar
     6    16    12    1
     7    12     1    1
     8     1    23    1
     9    24    23    1
    10    24    25    1
    11    25    26    1
    12    26    27   ar
    13    27    28   ar
    14    28    29   ar
    15    29    30   ar
    16    30    31   ar
    17    31    32    1
    18    32    33    1
    19     2     1    1
    20     2     3    1
    21     3     4    1
    22     4     5    1
    23     5     6    1
    24     6     7   ar
    25     7     8   ar
    26     8     9   ar
    27     9    10   ar
    28    10    11   ar
    29    16    17   ar
    30    17    18   ar
    31    18    13   ar
    32    33    24    1
    33    11     2    1
    34    31    26   ar
    35    11     6   ar
    36    19    21    1
    37    19    22    1
    38    33    34    1
@<TRIPOS>MOLECULE
*****
 34 38 0 0 0
SMALL
GASTEIGER

@<TRIPOS>ATOM
      1 N          -6.0039  -19.2753   21.2754 N.3     1  UNL1       -0.2641
      2 C          -5.5243  -18.3675   22.3689 C.3     1  UNL1        0.0981
      3 C          -4.2437  -18.6714   23.0884 C.3     1  UNL1        0.0224
      4 C          -3.7641  -17.7636   24.1820 C.3     1  UNL1        0.0065
      5 C          -4.5651  -16.5519   24.5561 C.3     1  UNL1        0.0277
      6 C          -5.8457  -16.2479   23.8366 C.ar    1  UNL1       -0.0073
      7 C          -6.6468  -15.0361   24.2107 C.ar    1  UNL1       -0.0015
      8 C          -7.9274  -14.7322   23.4913 C.ar    1  UNL1        0.0203
      9 C          -8.4070  -15.6400   22.3977 C.ar    1  UNL1        0.0985
     10 N          -7.6060  -16.8517   22.0236 N.ar    1  UNL1       -0.2471
     11 C          -6.3253  -17.1557   22.7431 C.ar    1  UNL1        0.0695
     12 C          -5.2950  -19.2968   19.9536 C.3     1  UNL1        0.0994
     13 C          -0.9469  -18.1626   19.7135 C.ar    1  UNL1       -0.0066
     14 C          -1.3680  -19.3525   20.5240 C.ar    1  UNL1       -0.0032
     15 C          -2.8174  -19.7305   20.6040 C.ar    1  UNL1       -0.0032
     16 C          -3.8457  -18.9187   19.8736 C.ar    1  UNL1       -0.0062
     17 C          -3.4246  -17.7288   19.0631 C.ar    1  UNL1       -0.0032
     18 C          -1.9752  -17.3507   18.9830 C.ar    1  UNL1       -0.0032
     19 N           1.3962  -17.9839   20.8216 N.3     1  UNL1       -0.3175
     20 C           0.5024  -17.7846   19.6335 C.3     1  UNL1        0.0922
     21 H           2.3409  -17.6754   20.5919 H       1  UNL1        0.1192
     22 H           1.4129  -18.9724   21.0726 H       1  UNL1        0.1192
     23 C          -7.1923  -20.1616   21.5035 C.3     1  UNL1        0.0888
     24 C          -8.5624  -19.5629   21.6233 C.3     1  UNL1        0.0748
     25 C          -9.2968  -19.6257   22.9297 C.3     1  UNL1        0.0432
     26 C         -10.6670  -19.0270   23.0494 C.ar    1  UNL1       -0.0234
     27 C         -11.4013  -19.0898   24.3558 C.ar    1  UNL1       -0.0045
     28 C         -12.7714  -18.4911   24.4755 C.ar    1  UNL1       -0.0003
     29 C         -13.4072  -17.8297   23.2888 C.ar    1  UNL1       -0.0003
     30 C         -12.6728  -17.7669   21.9824 C.ar    1  UNL1       -0.0032
     31 C         -11.3027  -18.3656   21.8627 C.ar    1  UNL1       -0.0103
     32 C         -10.5683  -18.3028   20.5562 C.3     1  UNL1        0.0953
     33 N          -9.1982  -18.9015   20.4365 N.3     1  UNL1       -0.2934
     34 H          -8.5724  -18.1494   20.1483 H       1  UNL1        0.1236
@<TRIPOS>BOND
     1    19    20    1
     2    20    13    1
     3    13    14   ar
     4    14    15   ar
     5    15    16   ar
     6    16    12    1
     7    12     1    1
     8     1    23    1
     9    24    23    1
    10    24    25    1
    11    25    26    1
    12    26    27   ar
    13    27    28   ar
    14    28    29   ar
    15    29    30   ar
    16    30    31   ar
    17    31    32    1
    18    32    33    1
    19     2     1    1
    20     2     3    1
    21     3     4    1
    22     4     5    1
    23     5     6    1
    24     6     7   ar
    25     7     8   ar
    26     8     9   ar
    27     9    10   ar
    28    10    11   ar
    29    16    17   ar
    30    17    18   ar
    31    18    13   ar
    32    33    24    1
    33    11     2    1
    34    31    26   ar
    35    11     6   ar
    36    19    21    1
    37    19    22    1
    38    33    34    1
@<TRIPOS>MOLECULE
*****
 34 38 0 0 0
SMALL
GASTEIGER

@<TRIPOS>ATOM
      1 N          -6.0545  -18.4377   21.9963 N.3     1  UNL1       -0.2641
      2 C          -4.9300  -19.0333   21.2022 C.3     1  UNL1        0.0981
      3 C          -5.1242  -20.3390   20.4898 C.3     1  UNL1        0.0224
      4 C          -3.9996  -20.9346   19.6957 C.3     1  UNL1        0.0065
      5 C          -2.6808  -20.2246   19.6141 C.3     1  UNL1        0.0277
      6 C          -2.4866  -18.9190   20.3265 C.ar    1  UNL1       -0.0073
      7 C          -1.1678  -18.2089   20.2449 C.ar    1  UNL1       -0.0015
      8 C          -0.9736  -16.9033   20.9573 C.ar    1  UNL1        0.0203
      9 C          -2.0982  -16.3076   21.7514 C.ar    1  UNL1        0.0985
     10 N          -3.4170  -17.0176   21.8330 N.ar    1  UNL1       -0.2471
     11 C          -3.6112  -18.3233   21.1206 C.ar    1  UNL1        0.0695
     12 C          -6.1066  -16.9567   22.2284 C.3     1  UNL1        0.0994
     13 C          -6.8634  -15.3526   26.3642 C.ar    1  UNL1       -0.0066
     14 C          -5.4752  -15.7471   25.9551 C.ar    1  UNL1       -0.0032
     15 C          -5.2230  -16.2818   24.5765 C.ar    1  UNL1       -0.0032
     16 C          -6.3589  -16.4220   23.6070 C.ar    1  UNL1       -0.0062
     17 C          -7.7471  -16.0275   24.0160 C.ar    1  UNL1       -0.0032
     18 C          -7.9994  -15.4929   25.3946 C.ar    1  UNL1       -0.0032
     19 N          -8.4947  -14.3776   28.1357 N.3     1  UNL1       -0.3175
     20 C          -7.1156  -14.8179   27.7427 C.3     1  UNL1        0.0922
     21 H          -8.4836  -14.0450   29.0998 H       1  UNL1        0.1192
     22 H          -9.1388  -15.1644   28.0549 H       1  UNL1        0.1192
     23 C          -7.1270  -19.3231   22.5583 C.3     1  UNL1        0.0888
     24 C          -8.5660  -18.9099   22.4649 C.3     1  UNL1        0.0748
     25 C          -9.4759  -19.0893   23.6438 C.3     1  UNL1        0.0432
     26 C         -10.9149  -18.6762   23.5504 C.ar    1  UNL1       -0.0234
     27 C         -11.8248  -18.8555   24.7293 C.ar    1  UNL1       -0.0045
     28 C         -13.2637  -18.4424   24.6358 C.ar    1  UNL1       -0.0003
     29 C         -13.7927  -17.8499   23.3634 C.ar    1  UNL1       -0.0003
     30 C         -12.8829  -17.6705   22.1845 C.ar    1  UNL1       -0.0032
     31 C         -11.4440  -18.0836   22.2780 C.ar    1  UNL1       -0.0103
     32 C         -10.5340  -17.9042   21.0990 C.3     1  UNL1        0.0953
     33 N          -9.0951  -18.3174   21.1925 N.3     1  UNL1       -0.2934
     34 H          -8.5369  -17.4855   21.0006 H       1  UNL1        0.1236
@<TRIPOS>BOND
     1    19    20    1
     2    20    13    1
     3    13    14   ar
     4    14    15   ar
     5    15    16   ar
     6    16    12    1
     7    12     1    1
     8     1    23    1
     9    24    23    1
    10    24    25    1
    11    25    26    1
    12    26    27   ar
    13    27    28   ar
    14    28    29   ar
    15    29    30   ar
    16    30    31   ar
    17    31    32    1
    18    32    33    1
    19     2     1    1
    20     2     3    1
    21     3     4    1
    22     4     5    1
    23     5     6    1
    24     6     7   ar
    25     7     8   ar
    26     8     9   ar
    27     9    10   ar
    28    10    11   ar
    29    16    17   ar
    30    17    18   ar
    31    18    13   ar
    32    33    24    1
    33    11     2    1
    34    31    26   ar
    35    11     6   ar
    36    19    21    1
    37    19    22    1
    38    33    34    1
@<TRIPOS>MOLECULE
*****
 34 38 0 0 0
SMALL
GASTEIGER

@<TRIPOS>ATOM
      1 N          -7.3003  -17.8487   22.0970 N.3     1  UNL1       -0.2641
      2 C          -8.3537  -18.4318   21.2025 C.3     1  UNL1        0.0981
      3 C          -7.9561  -19.2496   20.0096 C.3     1  UNL1        0.0224
      4 C          -9.0095  -19.8327   19.1150 C.3     1  UNL1        0.0065
      5 C         -10.4607  -19.5980   19.4134 C.3     1  UNL1        0.0277
      6 C         -10.8583  -18.7802   20.6063 C.ar    1  UNL1       -0.0073
      7 C         -12.3096  -18.5455   20.9047 C.ar    1  UNL1       -0.0015
      8 C         -12.7072  -17.7278   22.0976 C.ar    1  UNL1        0.0203
      9 C         -11.6538  -17.1447   22.9922 C.ar    1  UNL1        0.0985
     10 N         -10.2026  -17.3794   22.6938 N.ar    1  UNL1       -0.2471
     11 C          -9.8049  -18.1972   21.5009 C.ar    1  UNL1        0.0695
     12 C          -7.3505  -16.3959   22.4669 C.3     1  UNL1        0.0994
     13 C          -7.0091  -15.1590   26.7800 C.ar    1  UNL1       -0.0066
     14 C          -5.7852  -15.2062   25.9142 C.ar    1  UNL1       -0.0032
     15 C          -5.8990  -15.6186   24.4765 C.ar    1  UNL1       -0.0032
     16 C          -7.2367  -15.9836   23.9046 C.ar    1  UNL1       -0.0062
     17 C          -8.4608  -15.9364   24.7704 C.ar    1  UNL1       -0.0032
     18 C          -8.3470  -15.5241   26.2081 C.ar    1  UNL1       -0.0032
     19 N          -6.8470  -13.2916   28.5791 N.3     1  UNL1       -0.3175
     20 C          -6.8953  -14.7467   28.2178 C.3     1  UNL1        0.0922
     21 H          -6.7697  -13.1951   29.5916 H       1  UNL1        0.1192
     22 H          -7.6996  -12.8330   28.2580 H       1  UNL1        0.1192
     23 C          -6.1966  -18.7184   22.6217 C.3     1  UNL1        0.0888
     24 C          -4.8689  -18.7480   21.9242 C.3     1  UNL1        0.0748
     25 C          -3.9556  -17.5605   21.9995 C.3     1  UNL1        0.0432
     26 C          -2.6279  -17.5900   21.3019 C.ar    1  UNL1       -0.0234
     27 C          -1.7146  -16.4025   21.3772 C.ar    1  UNL1       -0.0045
     28 C          -0.3870  -16.4321   20.6797 C.ar    1  UNL1       -0.0003
     29 C           0.0273  -17.6491   19.9069 C.ar    1  UNL1       -0.0003
     30 C          -0.8860  -18.8366   19.8316 C.ar    1  UNL1       -0.0032
     31 C          -2.2136  -18.8070   20.5291 C.ar    1  UNL1       -0.0103
     32 C          -3.1270  -19.9945   20.4539 C.3     1  UNL1        0.0953
     33 N          -4.4546  -19.9650   21.1514 N.3     1  UNL1       -0.2934
     34 H          -4.4601  -20.7462   21.8072 H       1  UNL1        0.1236
@<TRIPOS>BOND
     1    19    20    1
     2    20    13    1
     3    13    14   ar
     4    14    15   ar
     5    15    16   ar
     6    16    12    1
     7    12     1    1
     8     1    23    1
     9    24    23    1
    10    24    25    1
    11    25    26    1
    12    26    27   ar
    13    27    28   ar
    14    28    29   ar
    15    29    30   ar
    16    30    31   ar
    17    31    32    1
    18    32    33    1
    19     2     1    1
    20     2     3    1
    21     3     4    1
    22     4     5    1
    23     5     6    1
    24     6     7   ar
    25     7     8   ar
    26     8     9   ar
    27     9    10   ar
    28    10    11   ar
    29    16    17   ar
    30    17    18   ar
    31    18    13   ar
    32    33    24    1
    33    11     2    1
    34    31    26   ar
    35    11     6   ar
    36    19    21    1
    37    19    22    1
    38    33    34    1
@<TRIPOS>MOLECULE
*****
 34 38 0 0 0
SMALL
GASTEIGER

@<TRIPOS>ATOM
      1 N          -0.0604    2.3138   20.3688 N.3     1  UNL1       -0.2641
      2 C          -0.8470    3.1161   19.3750 C.3     1  UNL1        0.0981
      3 C          -0.1799    3.6398   18.1378 C.3     1  UNL1        0.0224
      4 C          -0.9664    4.4421   17.1440 C.3     1  UNL1        0.0065
      5 C          -2.4200    4.7208   17.3874 C.3     1  UNL1        0.0277
      6 C          -3.0871    4.1971   18.6246 C.ar    1  UNL1       -0.0073
      7 C          -4.5408    4.4757   18.8680 C.ar    1  UNL1       -0.0015
      8 C          -5.2079    3.9520   20.1052 C.ar    1  UNL1        0.0203
      9 C          -4.4214    3.1497   21.0990 C.ar    1  UNL1        0.0985
     10 N          -2.9678    2.8711   20.8556 N.ar    1  UNL1       -0.2471
     11 C          -2.3006    3.3948   19.6184 C.ar    1  UNL1        0.0695
     12 C           0.0264    0.8229   20.2285 C.3     1  UNL1        0.0994
     13 C           3.7843   -1.0722   18.6358 C.ar    1  UNL1       -0.0066
     14 C           3.2345   -1.4984   19.9647 C.ar    1  UNL1       -0.0032
     15 C           1.9818   -0.8667   20.4956 C.ar    1  UNL1       -0.0032
     16 C           1.2790    0.1912   19.6976 C.ar    1  UNL1       -0.0062
     17 C           1.8288    0.6174   18.3686 C.ar    1  UNL1       -0.0032
     18 C           3.0814   -0.0143   17.8377 C.ar    1  UNL1       -0.0032
     19 N           5.0695   -3.1749   17.8132 N.3     1  UNL1       -0.3175
     20 C           5.0369   -1.7039   18.1049 C.3     1  UNL1        0.0922
     21 H           5.9922   -3.4316   17.4621 H       1  UNL1        0.1192
     22 H           4.3643   -3.3980   17.1109 H       1  UNL1        0.1192
     23 C           0.6393    3.0023   21.5029 C.3     1  UNL1        0.0888
     24 C           0.1472    2.8214   22.9084 C.3     1  UNL1        0.0748
     25 C           0.9730    2.0563   23.8995 C.3     1  UNL1        0.0432
     26 C           0.4809    1.8754   25.3050 C.ar    1  UNL1       -0.0234
     27 C           1.3068    1.1103   26.2962 C.ar    1  UNL1       -0.0045
     28 C           0.8147    0.9295   27.7015 C.ar    1  UNL1       -0.0003
     29 C          -0.5033    1.5137   28.1157 C.ar    1  UNL1       -0.0003
     30 C          -1.3292    2.2788   27.1245 C.ar    1  UNL1       -0.0032
     31 C          -0.8371    2.4597   25.7191 C.ar    1  UNL1       -0.0103
     32 C          -1.6630    3.2248   24.7279 C.3     1  UNL1        0.0953
     33 N          -1.1708    3.4057   23.3225 N.3     1  UNL1       -0.2934
     34 H          -1.1121    4.4106   23.1581 H       1  UNL1        0.1236
@<TRIPOS>BOND
     1    19    20    1
     2    20    13    1
     3    13    14   ar
     4    14    15   ar
     5    15    16   ar
     6    16    12    1
     7    12     1    1
     8     1    23    1
     9    24    23    1
    10    24    25    1
    11    25    26    1
    12    26    27   ar
    13    27    28   ar
    14    28    29   ar
    15    29    30   ar
    16    30    31   ar
    17    31    32    1
    18    32    33    1
    19     2     1    1
    20     2     3    1
    21     3     4    1
    22     4     5    1
    23     5     6    1
    24     6     7   ar
    25     7     8   ar
    26     8     9   ar
    27     9    10   ar
    28    10    11   ar
    29    16    17   ar
    30    17    18   ar
    31    18    13   ar
    32    33    24    1
    33    11     2    1
    34    31    26   ar
    35    11     6   ar
    36    19    21    1
    37    19    22    1
    38    33    34    1
