@<TRIPOS>MOLECULE
*****
 23 25 0 0 0
SMALL
GASTEIGER

@<TRIPOS>ATOM
      1 C          -9.7704  -17.7390   23.3121 C.2     1  UNL1        0.1983
      2 O         -11.0786  -18.0687   23.9676 O.2     1  UNL1       -0.2865
      3 C          -8.7492  -16.9208   24.0455 C.ar    1  UNL1        0.0402
      4 C          -9.0131  -16.4796   25.4547 C.ar    1  UNL1        0.0129
      5 C          -7.9919  -15.6615   26.1880 C.ar    1  UNL1        0.0688
      6 BR         -8.2558  -15.2202   27.5971 Br      1  UNL1       -0.0458
      7 C          -6.7068  -15.2846   25.5123 C.ar    1  UNL1        0.1459
      8 O          -5.6857  -14.4665   26.2457 O.3     1  UNL1       -0.5045
      9 C          -6.4430  -15.7258   24.1031 C.ar    1  UNL1        0.0688
     10 BR         -5.1579  -15.3490   23.4274 Br      1  UNL1       -0.0458
     11 C          -7.4642  -16.5439   23.3698 C.ar    1  UNL1        0.0129
     12 H          -5.8505  -14.1909   27.1259 H       1  UNL1        0.2922
     13 C         -10.2841  -17.9122   20.6946 C.ar    1  UNL1        0.1258
     14 O          -9.6407  -18.6067   19.5312 O.2     1  UNL1       -0.4577
     15 C          -8.4422  -19.3511   20.0406 C.ar    1  UNL1        0.1449
     16 C          -7.4269  -20.2120   19.3494 C.ar    1  UNL1        0.0375
     17 C          -6.3143  -20.8385   20.1365 C.ar    1  UNL1        0.0031
     18 C          -6.2171  -20.6041   21.6149 C.ar    1  UNL1        0.0002
     19 C          -7.2324  -19.7431   22.3061 C.ar    1  UNL1        0.0032
     20 C          -8.3449  -19.1166   21.5190 C.ar    1  UNL1        0.0403
     21 C          -9.4833  -18.2273   21.9232 C.ar    1  UNL1        0.0722
     22 C         -11.5990  -15.9308   19.6481 C.3     1  UNL1        0.0084
     23 C         -11.5127  -17.0534   20.6393 C.3     1  UNL1        0.0646
@<TRIPOS>BOND
     1    22    23    1
     2    23    13    1
     3    13    14   ar
     4    14    15   ar
     5    15    16   ar
     6    16    17   ar
     7    17    18   ar
     8    18    19   ar
     9    19    20   ar
    10    20    21   ar
    11    21     1    1
    12     1     2    2
    13     1     3    1
    14     3     4   ar
    15     4     5   ar
    16     5     6    1
    17     5     7   ar
    18     7     8    1
    19     7     9   ar
    20     9    10    1
    21     9    11   ar
    22    21    13   ar
    23    11     3   ar
    24    20    15   ar
    25     8    12    1
@<TRIPOS>MOLECULE
*****
 23 25 0 0 0
SMALL
GASTEIGER

@<TRIPOS>ATOM
      1 C          -9.7591  -17.7533   23.3111 C.2     1  UNL1        0.1983
      2 O         -11.0664  -18.0896   23.9650 O.2     1  UNL1       -0.2865
      3 C          -8.7428  -16.9303   24.0460 C.ar    1  UNL1        0.0402
      4 C          -7.4582  -16.5481   23.3724 C.ar    1  UNL1        0.0129
      5 C          -6.4421  -15.7252   24.1073 C.ar    1  UNL1        0.0688
      6 BR         -5.1575  -15.3430   23.4337 Br      1  UNL1       -0.0458
      7 C          -6.7104  -15.2844   25.5157 C.ar    1  UNL1        0.1459
      8 O          -5.6942  -14.4615   26.2505 O.3     1  UNL1       -0.5045
      9 C          -7.9950  -15.6666   26.1893 C.ar    1  UNL1        0.0688
     10 BR         -8.2634  -15.2259   27.5977 Br      1  UNL1       -0.0458
     11 C          -9.0112  -16.4895   25.4544 C.ar    1  UNL1        0.0129
     12 H          -4.8917  -14.2228   25.8297 H       1  UNL1        0.2922
     13 C         -10.2655  -17.9235   20.6920 C.ar    1  UNL1        0.1258
     14 O          -9.6186  -18.6163   19.5295 O.2     1  UNL1       -0.4577
     15 C          -8.4212  -19.3607   20.0413 C.ar    1  UNL1        0.1449
     16 C          -7.4036  -20.2204   19.3519 C.ar    1  UNL1        0.0375
     17 C          -6.2929  -20.8474   20.1413 C.ar    1  UNL1        0.0031
     18 C          -6.1998  -20.6147   21.6202 C.ar    1  UNL1        0.0002
     19 C          -7.2174  -19.7550   22.3097 C.ar    1  UNL1        0.0032
     20 C          -8.3281  -19.1280   21.5203 C.ar    1  UNL1        0.0403
     21 C          -9.4680  -18.2398   21.9224 C.ar    1  UNL1        0.0722
     22 C         -11.5779  -15.9407   19.6451 C.3     1  UNL1        0.0084
     23 C         -11.4943  -17.0652   20.6343 C.3     1  UNL1        0.0646
@<TRIPOS>BOND
     1    22    23    1
     2    23    13    1
     3    13    14   ar
     4    14    15   ar
     5    15    16   ar
     6    16    17   ar
     7    17    18   ar
     8    18    19   ar
     9    19    20   ar
    10    20    21   ar
    11    21     1    1
    12     1     2    2
    13     1     3    1
    14     3     4   ar
    15     4     5   ar
    16     5     6    1
    17     5     7   ar
    18     7     8    1
    19     7     9   ar
    20     9    10    1
    21     9    11   ar
    22    21    13   ar
    23    11     3   ar
    24    20    15   ar
    25     8    12    1
@<TRIPOS>MOLECULE
*****
 23 25 0 0 0
SMALL
GASTEIGER

@<TRIPOS>ATOM
      1 C          -7.6105  -16.4360   23.5271 C.2     1  UNL1        0.1983
      2 O          -7.3459  -14.9802   23.7727 O.2     1  UNL1       -0.2865
      3 C          -6.5194  -17.3174   22.9954 C.ar    1  UNL1        0.0402
      4 C          -6.8598  -18.4885   22.1221 C.ar    1  UNL1        0.0129
      5 C          -5.7687  -19.3698   21.5904 C.ar    1  UNL1        0.0688
      6 BR         -6.1091  -20.5409   20.7172 Br      1  UNL1       -0.0458
      7 C          -4.3371  -19.0800   21.9320 C.ar    1  UNL1        0.1459
      8 O          -3.2460  -19.9614   21.4003 O.3     1  UNL1       -0.5045
      9 C          -3.9967  -17.9090   22.8053 C.ar    1  UNL1        0.0688
     10 BR         -2.5651  -17.6192   23.1469 Br      1  UNL1       -0.0458
     11 C          -5.0878  -17.0277   23.3370 C.ar    1  UNL1        0.0129
     12 H          -3.4587  -20.6929   20.8548 H       1  UNL1        0.2922
     13 C          -9.4512  -17.5057   25.1435 C.ar    1  UNL1        0.1258
     14 O         -10.8597  -17.9920   24.9717 O.2     1  UNL1       -0.4577
     15 C         -11.2453  -17.7975   23.5352 C.ar    1  UNL1        0.1449
     16 C         -12.5108  -18.0944   22.7866 C.ar    1  UNL1        0.0375
     17 C         -12.6060  -17.7847   21.3221 C.ar    1  UNL1        0.0031
     18 C         -11.4358  -17.1781   20.6061 C.ar    1  UNL1        0.0002
     19 C         -10.1703  -16.8813   21.3547 C.ar    1  UNL1        0.0032
     20 C         -10.0751  -17.1910   22.8192 C.ar    1  UNL1        0.0403
     21 C          -8.9663  -17.0106   23.8132 C.ar    1  UNL1        0.0722
     22 C          -8.3347  -16.2201   27.1058 C.3     1  UNL1        0.0084
     23 C          -8.6656  -17.5131   26.4213 C.3     1  UNL1        0.0646
@<TRIPOS>BOND
     1    22    23    1
     2    23    13    1
     3    13    14   ar
     4    14    15   ar
     5    15    16   ar
     6    16    17   ar
     7    17    18   ar
     8    18    19   ar
     9    19    20   ar
    10    20    21   ar
    11    21     1    1
    12     1     2    2
    13     1     3    1
    14     3     4   ar
    15     4     5   ar
    16     5     6    1
    17     5     7   ar
    18     7     8    1
    19     7     9   ar
    20     9    10    1
    21     9    11   ar
    22    21    13   ar
    23    11     3   ar
    24    20    15   ar
    25     8    12    1
@<TRIPOS>MOLECULE
*****
 23 25 0 0 0
SMALL
GASTEIGER

@<TRIPOS>ATOM
      1 C          -7.6082  -16.4457   23.5213 C.2     1  UNL1        0.1983
      2 O          -7.3415  -14.9900   23.7652 O.2     1  UNL1       -0.2865
      3 C          -6.5193  -17.3285   22.9875 C.ar    1  UNL1        0.0402
      4 C          -5.0866  -17.0403   23.3257 C.ar    1  UNL1        0.0129
      5 C          -3.9978  -17.9231   22.7919 C.ar    1  UNL1        0.0688
      6 BR         -2.5651  -17.6348   23.1301 Br      1  UNL1       -0.0458
      7 C          -4.3415  -19.0942   21.9199 C.ar    1  UNL1        0.1459
      8 O          -3.2526  -19.9770   21.3862 O.3     1  UNL1       -0.5045
      9 C          -5.7742  -19.3825   21.5817 C.ar    1  UNL1        0.0688
     10 BR         -6.1180  -20.5536   20.7097 Br      1  UNL1       -0.0458
     11 C          -6.8630  -18.4996   22.1155 C.ar    1  UNL1        0.0129
     12 H          -2.3577  -19.7969   21.5974 H       1  UNL1        0.2922
     13 C          -9.4468  -17.5102   25.1434 C.ar    1  UNL1        0.1258
     14 O         -10.8559  -17.9960   24.9752 O.2     1  UNL1       -0.4577
     15 C         -11.2439  -17.8047   23.5389 C.ar    1  UNL1        0.1449
     16 C         -12.5109  -18.1025   22.7932 C.ar    1  UNL1        0.0375
     17 C         -12.6084  -17.7962   21.3281 C.ar    1  UNL1        0.0031
     18 C         -11.4390  -17.1921   20.6087 C.ar    1  UNL1        0.0002
     19 C         -10.1721  -16.8944   21.3543 C.ar    1  UNL1        0.0032
     20 C         -10.0745  -17.2007   22.8194 C.ar    1  UNL1        0.0403
     21 C          -8.9638  -17.0187   23.8111 C.ar    1  UNL1        0.0722
     22 C          -8.3476  -16.2224   27.1140 C.3     1  UNL1        0.0084
     23 C          -8.6589  -17.5151   26.4199 C.3     1  UNL1        0.0646
@<TRIPOS>BOND
     1    22    23    1
     2    23    13    1
     3    13    14   ar
     4    14    15   ar
     5    15    16   ar
     6    16    17   ar
     7    17    18   ar
     8    18    19   ar
     9    19    20   ar
    10    20    21   ar
    11    21     1    1
    12     1     2    2
    13     1     3    1
    14     3     4   ar
    15     4     5   ar
    16     5     6    1
    17     5     7   ar
    18     7     8    1
    19     7     9   ar
    20     9    10    1
    21     9    11   ar
    22    21    13   ar
    23    11     3   ar
    24    20    15   ar
    25     8    12    1
@<TRIPOS>MOLECULE
*****
 23 25 0 0 0
SMALL
GASTEIGER

@<TRIPOS>ATOM
      1 C          -7.9693  -15.8910   23.4132 C.2     1  UNL1        0.1983
      2 O          -7.8613  -14.5698   24.1151 O.2     1  UNL1       -0.2865
      3 C          -9.2988  -16.3629   22.9034 C.ar    1  UNL1        0.0402
      4 C          -9.7697  -15.9485   21.5409 C.ar    1  UNL1        0.0129
      5 C         -11.0991  -16.4205   21.0312 C.ar    1  UNL1        0.0688
      6 BR        -11.5700  -16.0060   19.6687 Br      1  UNL1       -0.0458
      7 C         -11.9577  -17.3068   21.8840 C.ar    1  UNL1        0.1459
      8 O         -13.2871  -17.7787   21.3743 O.3     1  UNL1       -0.5045
      9 C         -11.4868  -17.7212   23.2466 C.ar    1  UNL1        0.0688
     10 BR        -12.3453  -18.6075   24.0994 Br      1  UNL1       -0.0458
     11 C         -10.1573  -17.2492   23.7562 C.ar    1  UNL1        0.0129
     12 H         -13.5813  -17.5198   20.5232 H       1  UNL1        0.2922
     13 C          -5.4224  -16.5439   23.8951 C.ar    1  UNL1        0.1258
     14 O          -4.4929  -17.6173   23.4116 O.2     1  UNL1       -0.4577
     15 C          -5.2439  -18.4770   22.4385 C.ar    1  UNL1        0.1449
     16 C          -4.8388  -19.6834   21.6445 C.ar    1  UNL1        0.0375
     17 C          -5.8273  -20.3477   20.7326 C.ar    1  UNL1        0.0031
     18 C          -7.2209  -19.8056   20.6148 C.ar    1  UNL1        0.0002
     19 C          -7.6261  -18.5993   21.4088 C.ar    1  UNL1        0.0032
     20 C          -6.6376  -17.9349   22.3206 C.ar    1  UNL1        0.0403
     21 C          -6.7479  -16.7402   23.2209 C.ar    1  UNL1        0.0722
     22 C          -5.5087  -15.5969   26.3129 C.3     1  UNL1        0.0084
     23 C          -5.0856  -15.4638   24.8800 C.3     1  UNL1        0.0646
@<TRIPOS>BOND
     1    22    23    1
     2    23    13    1
     3    13    14   ar
     4    14    15   ar
     5    15    16   ar
     6    16    17   ar
     7    17    18   ar
     8    18    19   ar
     9    19    20   ar
    10    20    21   ar
    11    21     1    1
    12     1     2    2
    13     1     3    1
    14     3     4   ar
    15     4     5   ar
    16     5     6    1
    17     5     7   ar
    18     7     8    1
    19     7     9   ar
    20     9    10    1
    21     9    11   ar
    22    21    13   ar
    23    11     3   ar
    24    20    15   ar
    25     8    12    1
@<TRIPOS>MOLECULE
*****
 23 25 0 0 0
SMALL
GASTEIGER

@<TRIPOS>ATOM
      1 C          -7.9552  -17.2839   22.4710 C.2     1  UNL1        0.1983
      2 O          -8.7106  -16.5601   21.3962 O.2     1  UNL1       -0.2865
      3 C          -6.7250  -18.0690   22.1243 C.ar    1  UNL1        0.0402
      4 C          -6.8338  -19.2920   21.2626 C.ar    1  UNL1        0.0129
      5 C          -5.6036  -20.0770   20.9160 C.ar    1  UNL1        0.0688
      6 BR         -5.7125  -21.3000   20.0543 Br      1  UNL1       -0.0458
      7 C          -4.2646  -19.6392   21.4310 C.ar    1  UNL1        0.1459
      8 O          -3.0344  -20.4243   21.0843 O.3     1  UNL1       -0.5045
      9 C          -4.1557  -18.4162   22.2927 C.ar    1  UNL1        0.0688
     10 BR         -2.8167  -17.9784   22.8078 Br      1  UNL1       -0.0458
     11 C          -5.3859  -17.6312   22.6394 C.ar    1  UNL1        0.0129
     12 H          -3.1024  -21.1883   20.5460 H       1  UNL1        0.2922
     13 C          -9.6367  -17.9178   24.4499 C.ar    1  UNL1        0.1258
     14 O          -9.7339  -17.5802   25.9082 O.2     1  UNL1       -0.4577
     15 C          -8.5872  -16.6764   26.2522 C.ar    1  UNL1        0.1449
     16 C          -8.1728  -16.0261   27.5387 C.ar    1  UNL1        0.0375
     17 C          -6.9525  -15.1548   27.5796 C.ar    1  UNL1        0.0031
     18 C          -6.1466  -14.9338   26.3339 C.ar    1  UNL1        0.0002
     19 C          -6.5611  -15.5841   25.0473 C.ar    1  UNL1        0.0032
     20 C          -7.7814  -16.4554   25.0065 C.ar    1  UNL1        0.0403
     21 C          -8.4300  -17.2226   23.8926 C.ar    1  UNL1        0.0722
     22 C         -10.1550  -20.1741   23.2708 C.3     1  UNL1        0.0084
     23 C         -10.5805  -18.7963   23.6834 C.3     1  UNL1        0.0646
@<TRIPOS>BOND
     1    22    23    1
     2    23    13    1
     3    13    14   ar
     4    14    15   ar
     5    15    16   ar
     6    16    17   ar
     7    17    18   ar
     8    18    19   ar
     9    19    20   ar
    10    20    21   ar
    11    21     1    1
    12     1     2    2
    13     1     3    1
    14     3     4   ar
    15     4     5   ar
    16     5     6    1
    17     5     7   ar
    18     7     8    1
    19     7     9   ar
    20     9    10    1
    21     9    11   ar
    22    21    13   ar
    23    11     3   ar
    24    20    15   ar
    25     8    12    1
@<TRIPOS>MOLECULE
*****
 23 25 0 0 0
SMALL
GASTEIGER

@<TRIPOS>ATOM
      1 C          -7.7287  -17.0972   22.4744 C.2     1  UNL1        0.1983
      2 O          -8.3674  -16.2518   21.4128 O.2     1  UNL1       -0.2865
      3 C          -6.5275  -17.9333   22.1454 C.ar    1  UNL1        0.0402
      4 C          -5.1737  -17.5335   22.6527 C.ar    1  UNL1        0.0129
      5 C          -3.9726  -18.3696   22.3237 C.ar    1  UNL1        0.0688
      6 BR         -2.6188  -17.9698   22.8310 Br      1  UNL1       -0.0458
      7 C          -4.1253  -19.6055   21.4875 C.ar    1  UNL1        0.1459
      8 O          -2.9241  -20.4416   21.1586 O.3     1  UNL1       -0.5045
      9 C          -5.4791  -20.0054   20.9802 C.ar    1  UNL1        0.0688
     10 BR         -5.6318  -21.2413   20.1441 Br      1  UNL1       -0.0458
     11 C          -6.6802  -19.1692   21.3092 C.ar    1  UNL1        0.0129
     12 H          -2.0784  -20.1918   21.4755 H       1  UNL1        0.2922
     13 C          -9.5238  -17.8345   24.3126 C.ar    1  UNL1        0.1258
     14 O          -9.7139  -17.5675   25.7763 O.2     1  UNL1       -0.4577
     15 C          -8.5986  -16.6746   26.2334 C.ar    1  UNL1        0.1449
     16 C          -8.2702  -16.0842   27.5726 C.ar    1  UNL1        0.0375
     17 C          -7.0623  -15.2090   27.7305 C.ar    1  UNL1        0.0031
     18 C          -6.1829  -14.9241   26.5492 C.ar    1  UNL1        0.0002
     19 C          -6.5113  -15.5146   25.2100 C.ar    1  UNL1        0.0032
     20 C          -7.7192  -16.3898   25.0521 C.ar    1  UNL1        0.0403
     21 C          -8.2910  -17.1066   23.8650 C.ar    1  UNL1        0.0722
     22 C         -10.2684  -20.1738   23.4623 C.3     1  UNL1        0.0084
     23 C         -10.4108  -18.6807   23.4482 C.3     1  UNL1        0.0646
@<TRIPOS>BOND
     1    22    23    1
     2    23    13    1
     3    13    14   ar
     4    14    15   ar
     5    15    16   ar
     6    16    17   ar
     7    17    18   ar
     8    18    19   ar
     9    19    20   ar
    10    20    21   ar
    11    21     1    1
    12     1     2    2
    13     1     3    1
    14     3     4   ar
    15     4     5   ar
    16     5     6    1
    17     5     7   ar
    18     7     8    1
    19     7     9   ar
    20     9    10    1
    21     9    11   ar
    22    21    13   ar
    23    11     3   ar
    24    20    15   ar
    25     8    12    1
@<TRIPOS>MOLECULE
*****
 23 25 0 0 0
SMALL
GASTEIGER

@<TRIPOS>ATOM
      1 C          -6.3650  -20.2652   20.4535 C.2     1  UNL1        0.1983
      2 O          -6.2468  -21.7506   20.2828 O.2     1  UNL1       -0.2865
      3 C          -5.1441  -19.4445   20.7471 C.ar    1  UNL1        0.0402
      4 C          -4.8638  -18.9923   22.1496 C.ar    1  UNL1        0.0129
      5 C          -3.6430  -18.1717   22.4430 C.ar    1  UNL1        0.0688
      6 BR         -3.3627  -17.7195   23.8455 Br      1  UNL1       -0.0458
      7 C          -2.7024  -17.8034   21.3341 C.ar    1  UNL1        0.1459
      8 O          -1.4816  -16.9828   21.6277 O.3     1  UNL1       -0.5045
      9 C          -2.9827  -18.2556   19.9316 C.ar    1  UNL1        0.0688
     10 BR         -2.0422  -17.8872   18.8227 Br      1  UNL1       -0.0458
     11 C          -4.2036  -19.0762   19.6382 C.ar    1  UNL1        0.0129
     12 H          -1.3065  -16.7003   22.5038 H       1  UNL1        0.2922
     13 C          -8.6210  -19.6767   19.1462 C.ar    1  UNL1        0.1258
     14 O          -9.8447  -18.8657   19.4544 O.2     1  UNL1       -0.4577
     15 C          -9.6839  -18.2880   20.8293 C.ar    1  UNL1        0.1449
     16 C         -10.5713  -17.4073   21.6581 C.ar    1  UNL1        0.0375
     17 C         -10.1355  -16.9805   23.0284 C.ar    1  UNL1        0.0031
     18 C          -8.8124  -17.4345   23.5700 C.ar    1  UNL1        0.0002
     19 C          -7.9251  -18.3152   22.7413 C.ar    1  UNL1        0.0032
     20 C          -8.3608  -18.7420   21.3709 C.ar    1  UNL1        0.0403
     21 C          -7.7039  -19.6002   20.3307 C.ar    1  UNL1        0.0722
     22 C          -8.8509  -21.8412   17.7278 C.3     1  UNL1        0.0084
     23 C          -8.3603  -20.4316   17.8765 C.3     1  UNL1        0.0646
@<TRIPOS>BOND
     1    22    23    1
     2    23    13    1
     3    13    14   ar
     4    14    15   ar
     5    15    16   ar
     6    16    17   ar
     7    17    18   ar
     8    18    19   ar
     9    19    20   ar
    10    20    21   ar
    11    21     1    1
    12     1     2    2
    13     1     3    1
    14     3     4   ar
    15     4     5   ar
    16     5     6    1
    17     5     7   ar
    18     7     8    1
    19     7     9   ar
    20     9    10    1
    21     9    11   ar
    22    21    13   ar
    23    11     3   ar
    24    20    15   ar
    25     8    12    1
@<TRIPOS>MOLECULE
*****
 23 25 0 0 0
SMALL
GASTEIGER

@<TRIPOS>ATOM
      1 C          -8.1229  -19.4035   22.3980 C.2     1  UNL1        0.1983
      2 O          -8.4951  -20.5929   23.2326 O.2     1  UNL1       -0.2865
      3 C          -6.7473  -18.8144   22.5030 C.ar    1  UNL1        0.0402
      4 C          -6.5485  -17.4889   23.1765 C.ar    1  UNL1        0.0129
      5 C          -5.1730  -16.9000   23.2815 C.ar    1  UNL1        0.0688
      6 BR         -4.9742  -15.5745   23.9549 Br      1  UNL1       -0.0458
      7 C          -3.9964  -17.6364   22.7131 C.ar    1  UNL1        0.1459
      8 O          -2.6209  -17.0474   22.8181 O.3     1  UNL1       -0.5045
      9 C          -4.1952  -18.9619   22.0396 C.ar    1  UNL1        0.0688
     10 BR         -3.0185  -19.6984   21.4712 Br      1  UNL1       -0.0458
     11 C          -5.5707  -19.5509   21.9346 C.ar    1  UNL1        0.0129
     12 H          -2.4967  -16.2194   23.2388 H       1  UNL1        0.2922
     13 C          -9.2210  -19.0655   19.9845 C.ar    1  UNL1        0.1258
     14 O         -10.3642  -18.2594   19.4429 O.2     1  UNL1       -0.4577
     15 C         -10.9759  -17.4988   20.5820 C.ar    1  UNL1        0.1449
     16 C         -12.1307  -16.5437   20.6459 C.ar    1  UNL1        0.0375
     17 C         -12.5203  -15.9246   21.9554 C.ar    1  UNL1        0.0031
     18 C         -11.7552  -16.2607   23.2010 C.ar    1  UNL1        0.0002
     19 C         -10.6004  -17.2158   23.1371 C.ar    1  UNL1        0.0032
     20 C         -10.2107  -17.8348   21.8276 C.ar    1  UNL1        0.0403
     21 C          -9.1262  -18.8031   21.4584 C.ar    1  UNL1        0.0722
     22 C          -8.9148  -20.8680   18.1387 C.3     1  UNL1        0.0084
     23 C          -8.3293  -19.9743   19.1916 C.3     1  UNL1        0.0646
@<TRIPOS>BOND
     1    22    23    1
     2    23    13    1
     3    13    14   ar
     4    14    15   ar
     5    15    16   ar
     6    16    17   ar
     7    17    18   ar
     8    18    19   ar
     9    19    20   ar
    10    20    21   ar
    11    21     1    1
    12     1     2    2
    13     1     3    1
    14     3     4   ar
    15     4     5   ar
    16     5     6    1
    17     5     7   ar
    18     7     8    1
    19     7     9   ar
    20     9    10    1
    21     9    11   ar
    22    21    13   ar
    23    11     3   ar
    24    20    15   ar
    25     8    12    1
