@<TRIPOS>MOLECULE
*****
 23 25 0 0 0
SMALL
GASTEIGER

@<TRIPOS>ATOM
      1 C          -8.1900  -17.9723   22.4027 C.3     1  UNL1        0.1883
      2 F         -12.9020  -15.7820   22.4074 F       1  UNL1       -0.2033
      3 C         -11.9860  -16.8941   22.8248 C.ar    1  UNL1        0.1504
      4 C         -10.5460  -16.8772   22.4051 C.ar    1  UNL1        0.0297
      5 C          -9.6301  -17.9893   22.8224 C.ar    1  UNL1        0.0195
      6 C         -10.1540  -19.1183   23.6595 C.ar    1  UNL1        0.0002
      7 C         -11.5940  -19.1352   24.0792 C.ar    1  UNL1        0.0135
      8 C         -12.5100  -18.0231   23.6618 C.ar    1  UNL1        0.0850
      9 CL        -13.9500  -18.0401   24.0816 Cl      1  UNL1       -0.0799
     10 C          -7.5442  -19.2243   21.8875 C.3     1  UNL1        0.0510
     11 C          -6.0851  -19.2272   21.5398 C.3     1  UNL1        0.0354
     12 C          -4.8078  -19.1663   22.3239 C.3     1  UNL1        0.0700
     13 N          -4.0215  -19.2312   21.0482 N.3     1  UNL1       -0.2974
     14 C          -5.2988  -19.2920   20.2641 C.3     1  UNL1        0.0700
     15 H          -3.4388  -20.0637   20.9600 H       1  UNL1        0.1232
     16 O          -7.3959  -16.7034   22.4981 O.3     1  UNL1       -0.4747
     17 C          -6.9370  -16.2046   23.8362 C.ar    1  UNL1        0.1397
     18 C          -5.4823  -15.9277   24.0749 C.ar    1  UNL1        0.0370
     19 C          -5.0234  -15.4289   25.4130 C.ar    1  UNL1        0.0040
     20 C          -6.0193  -15.2070   26.5125 C.ar    1  UNL1        0.0116
     21 C          -7.4742  -15.4839   26.2739 C.ar    1  UNL1        0.0607
     22 CL         -8.4700  -15.2620   27.3734 Cl      1  UNL1       -0.0821
     23 C          -7.9330  -15.9827   24.9358 C.ar    1  UNL1        0.0483
@<TRIPOS>BOND
     1     2     3    1
     2     3     4   ar
     3     4     5   ar
     4     5     1    1
     5     1    10    1
     6    10    11    1
     7    11    12    1
     8    12    13    1
     9    13    14    1
    10     1    16    1
    11    16    17    1
    12    17    18   ar
    13    18    19   ar
    14    19    20   ar
    15    20    21   ar
    16    21    22    1
    17    21    23   ar
    18     5     6   ar
    19     6     7   ar
    20     7     8   ar
    21     8     9    1
    22     8     3   ar
    23    14    11    1
    24    23    17   ar
    25    13    15    1
@<TRIPOS>MOLECULE
*****
 23 25 0 0 0
SMALL
GASTEIGER

@<TRIPOS>ATOM
      1 C          -8.1641  -17.5935   22.2951 C.3     1  UNL1        0.1883
      2 F          -3.3644  -19.5808   22.4107 F       1  UNL1       -0.2033
      3 C          -4.7033  -19.4567   21.7460 C.ar    1  UNL1        0.1504
      4 C          -5.7642  -18.5872   22.3529 C.ar    1  UNL1        0.0297
      5 C          -7.1031  -18.4631   21.6882 C.ar    1  UNL1        0.0195
      6 C          -7.3812  -19.2085   20.4166 C.ar    1  UNL1        0.0002
      7 C          -6.3203  -20.0780   19.8097 C.ar    1  UNL1        0.0135
      8 C          -4.9813  -20.2021   20.4744 C.ar    1  UNL1        0.0850
      9 CL         -3.9204  -21.0717   19.8674 Cl      1  UNL1       -0.0799
     10 C          -9.5403  -18.1423   22.5292 C.3     1  UNL1        0.0510
     11 C          -9.7977  -19.0490   23.6961 C.3     1  UNL1        0.0354
     12 C         -10.5206  -18.9158   25.0036 C.3     1  UNL1        0.0700
     13 N         -10.1618  -20.3313   25.3462 N.3     1  UNL1       -0.2974
     14 C          -9.4389  -20.4646   24.0387 C.3     1  UNL1        0.0700
     15 H         -10.9649  -20.9527   25.4432 H       1  UNL1        0.1232
     16 O          -7.8487  -16.1752   22.6680 O.3     1  UNL1       -0.4747
     17 C          -7.3059  -15.8609   24.0305 C.ar    1  UNL1        0.1397
     18 C          -5.8673  -15.4684   24.1926 C.ar    1  UNL1        0.0370
     19 C          -5.3246  -15.1540   25.5551 C.ar    1  UNL1        0.0040
     20 C          -6.2204  -15.2322   26.7557 C.ar    1  UNL1        0.0116
     21 C          -7.6591  -15.6247   26.5937 C.ar    1  UNL1        0.0607
     22 CL         -8.5549  -15.7029   27.7942 Cl      1  UNL1       -0.0821
     23 C          -8.2019  -15.9391   25.2311 C.ar    1  UNL1        0.0483
@<TRIPOS>BOND
     1     2     3    1
     2     3     4   ar
     3     4     5   ar
     4     5     1    1
     5     1    10    1
     6    10    11    1
     7    11    12    1
     8    12    13    1
     9    13    14    1
    10     1    16    1
    11    16    17    1
    12    17    18   ar
    13    18    19   ar
    14    19    20   ar
    15    20    21   ar
    16    21    22    1
    17    21    23   ar
    18     5     6   ar
    19     6     7   ar
    20     7     8   ar
    21     8     9    1
    22     8     3   ar
    23    14    11    1
    24    23    17   ar
    25    13    15    1
@<TRIPOS>MOLECULE
*****
 23 25 0 0 0
SMALL
GASTEIGER

@<TRIPOS>ATOM
      1 C          -8.1094  -18.3244   22.6050 C.3     1  UNL1        0.1883
      2 F         -12.9918  -17.2228   21.2092 F       1  UNL1       -0.2033
      3 C         -12.0144  -17.7237   22.2308 C.ar    1  UNL1        0.1504
      4 C         -10.5506  -17.7736   21.9071 C.ar    1  UNL1        0.0297
      5 C          -9.5732  -18.2745   22.9288 C.ar    1  UNL1        0.0195
      6 C         -10.0596  -18.7255   24.2741 C.ar    1  UNL1        0.0002
      7 C         -11.5233  -18.6756   24.5978 C.ar    1  UNL1        0.0135
      8 C         -12.5008  -18.1747   23.5762 C.ar    1  UNL1        0.0850
      9 CL        -13.9646  -18.1248   23.9000 Cl      1  UNL1       -0.0799
     10 C          -7.3638  -17.0576   22.3061 C.3     1  UNL1        0.0510
     11 C          -7.0584  -16.0888   23.4098 C.3     1  UNL1        0.0354
     12 C          -7.8795  -15.2192   24.3152 C.3     1  UNL1        0.0700
     13 N          -6.6266  -14.7188   24.9708 N.3     1  UNL1       -0.2974
     14 C          -5.8055  -15.5884   24.0654 C.3     1  UNL1        0.0700
     15 H          -6.5500  -14.9576   25.9595 H       1  UNL1        0.1232
     16 O          -7.3912  -19.6410   22.5801 O.3     1  UNL1       -0.4747
     17 C          -6.0597  -19.7563   21.8991 C.ar    1  UNL1        0.1397
     18 C          -5.9318  -20.5475   20.6312 C.ar    1  UNL1        0.0370
     19 C          -4.6003  -20.6628   19.9502 C.ar    1  UNL1        0.0040
     20 C          -3.3967  -19.9868   20.5370 C.ar    1  UNL1        0.0116
     21 C          -3.5245  -19.1956   21.8050 C.ar    1  UNL1        0.0607
     22 CL         -2.3210  -18.5197   22.3919 Cl      1  UNL1       -0.0821
     23 C          -4.8561  -19.0803   22.4860 C.ar    1  UNL1        0.0483
@<TRIPOS>BOND
     1     2     3    1
     2     3     4   ar
     3     4     5   ar
     4     5     1    1
     5     1    10    1
     6    10    11    1
     7    11    12    1
     8    12    13    1
     9    13    14    1
    10     1    16    1
    11    16    17    1
    12    17    18   ar
    13    18    19   ar
    14    19    20   ar
    15    20    21   ar
    16    21    22    1
    17    21    23   ar
    18     5     6   ar
    19     6     7   ar
    20     7     8   ar
    21     8     9    1
    22     8     3   ar
    23    14    11    1
    24    23    17   ar
    25    13    15    1
@<TRIPOS>MOLECULE
*****
 23 25 0 0 0
SMALL
GASTEIGER

@<TRIPOS>ATOM
      1 C          -7.5380  -17.8747   22.7105 C.3     1  UNL1        0.1883
      2 F          -4.6067  -20.9528   19.7218 F       1  UNL1       -0.2033
      3 C          -4.7232  -19.9322   20.8148 C.ar    1  UNL1        0.1504
      4 C          -6.0723  -19.4138   21.2161 C.ar    1  UNL1        0.0297
      5 C          -6.1888  -18.3931   22.3091 C.ar    1  UNL1        0.0195
      6 C          -4.9562  -17.8908   23.0008 C.ar    1  UNL1        0.0002
      7 C          -3.6071  -18.4092   22.5994 C.ar    1  UNL1        0.0135
      8 C          -3.4906  -19.4299   21.5064 C.ar    1  UNL1        0.0850
      9 CL         -2.1414  -19.9483   21.1050 Cl      1  UNL1       -0.0799
     10 C          -7.7428  -16.4045   22.9263 C.3     1  UNL1        0.0510
     11 C          -7.7044  -15.8378   24.3146 C.3     1  UNL1        0.0354
     12 C          -6.6223  -15.3483   25.2308 C.3     1  UNL1        0.0700
     13 N          -7.6501  -15.0363   26.2779 N.3     1  UNL1       -0.2974
     14 C          -8.7322  -15.5258   25.3616 C.3     1  UNL1        0.0700
     15 H          -7.7190  -14.0459   26.5118 H       1  UNL1        0.1232
     16 O          -8.6824  -18.8265   22.8959 O.3     1  UNL1       -0.4747
     17 C         -10.0546  -18.4513   22.4203 C.ar    1  UNL1        0.1397
     18 C         -10.2900  -18.1534   20.9692 C.ar    1  UNL1        0.0370
     19 C         -11.6622  -17.7782   20.4935 C.ar    1  UNL1        0.0040
     20 C         -12.7991  -17.7009   21.4690 C.ar    1  UNL1        0.0116
     21 C         -12.5637  -17.9987   22.9202 C.ar    1  UNL1        0.0607
     22 CL        -13.7005  -17.9214   23.8957 Cl      1  UNL1       -0.0821
     23 C         -11.1915  -18.3740   23.3959 C.ar    1  UNL1        0.0483
@<TRIPOS>BOND
     1     2     3    1
     2     3     4   ar
     3     4     5   ar
     4     5     1    1
     5     1    10    1
     6    10    11    1
     7    11    12    1
     8    12    13    1
     9    13    14    1
    10     1    16    1
    11    16    17    1
    12    17    18   ar
    13    18    19   ar
    14    19    20   ar
    15    20    21   ar
    16    21    22    1
    17    21    23   ar
    18     5     6   ar
    19     6     7   ar
    20     7     8   ar
    21     8     9    1
    22     8     3   ar
    23    14    11    1
    24    23    17   ar
    25    13    15    1
@<TRIPOS>MOLECULE
*****
 23 25 0 0 0
SMALL
GASTEIGER

@<TRIPOS>ATOM
      1 C          -8.1920  -17.4459   22.1472 C.3     1  UNL1        0.1883
      2 F          -3.5014  -19.6555   22.4875 F       1  UNL1       -0.2033
      3 C          -4.8041  -19.4773   21.7656 C.ar    1  UNL1        0.1504
      4 C          -5.8467  -18.5507   22.3173 C.ar    1  UNL1        0.0297
      5 C          -7.1494  -18.3726   21.5955 C.ar    1  UNL1        0.0195
      6 C          -7.4096  -19.1210   20.3219 C.ar    1  UNL1        0.0002
      7 C          -6.3671  -20.0476   19.7702 C.ar    1  UNL1        0.0135
      8 C          -5.0643  -20.2258   20.4920 C.ar    1  UNL1        0.0850
      9 CL         -4.0217  -21.1524   19.9402 Cl      1  UNL1       -0.0799
     10 C          -9.6133  -17.9077   22.2761 C.3     1  UNL1        0.0510
     11 C         -10.6613  -17.3789   21.3423 C.3     1  UNL1        0.0354
     12 C         -11.7150  -16.3144   21.4239 C.3     1  UNL1        0.0700
     13 N         -12.1434  -16.6310   20.0216 N.3     1  UNL1       -0.2974
     14 C         -11.0897  -17.6955   19.9400 C.3     1  UNL1        0.0700
     15 H         -12.0120  -15.8636   19.3628 H       1  UNL1        0.1232
     16 O          -7.8133  -16.0576   22.5702 O.3     1  UNL1       -0.4747
     17 C          -7.2715  -15.8147   23.9476 C.ar    1  UNL1        0.1397
     18 C          -5.8332  -15.4303   24.1309 C.ar    1  UNL1        0.0370
     19 C          -5.2915  -15.1874   25.5084 C.ar    1  UNL1        0.0040
     20 C          -6.1879  -15.3289   26.7026 C.ar    1  UNL1        0.0116
     21 C          -7.6263  -15.7133   26.5194 C.ar    1  UNL1        0.0607
     22 CL         -8.5227  -15.8548   27.7137 Cl      1  UNL1       -0.0821
     23 C          -8.1681  -15.9562   25.1419 C.ar    1  UNL1        0.0483
@<TRIPOS>BOND
     1     2     3    1
     2     3     4   ar
     3     4     5   ar
     4     5     1    1
     5     1    10    1
     6    10    11    1
     7    11    12    1
     8    12    13    1
     9    13    14    1
    10     1    16    1
    11    16    17    1
    12    17    18   ar
    13    18    19   ar
    14    19    20   ar
    15    20    21   ar
    16    21    22    1
    17    21    23   ar
    18     5     6   ar
    19     6     7   ar
    20     7     8   ar
    21     8     9    1
    22     8     3   ar
    23    14    11    1
    24    23    17   ar
    25    13    15    1
@<TRIPOS>MOLECULE
*****
 23 25 0 0 0
SMALL
GASTEIGER

@<TRIPOS>ATOM
      1 C          -7.6804  -17.3351   23.2269 C.3     1  UNL1        0.1883
      2 F          -7.0094  -20.8965   19.5031 F       1  UNL1       -0.2033
      3 C          -6.4358  -19.9831   20.5456 C.ar    1  UNL1        0.1504
      4 C          -7.3448  -19.1158   21.3650 C.ar    1  UNL1        0.0297
      5 C          -6.7713  -18.2024   22.4075 C.ar    1  UNL1        0.0195
      6 C          -5.2887  -18.1564   22.6306 C.ar    1  UNL1        0.0002
      7 C          -4.3797  -19.0237   21.8112 C.ar    1  UNL1        0.0135
      8 C          -4.9532  -19.9371   20.7687 C.ar    1  UNL1        0.0850
      9 CL         -4.0441  -20.8044   19.9493 Cl      1  UNL1       -0.0799
     10 C          -7.2684  -15.9355   23.5754 C.3     1  UNL1        0.0510
     11 C          -7.0063  -15.5649   25.0050 C.3     1  UNL1        0.0354
     12 C          -7.8490  -15.4374   26.2394 C.3     1  UNL1        0.0700
     13 N          -6.6355  -15.0408   27.0269 N.3     1  UNL1       -0.2974
     14 C          -5.7928  -15.1682   25.7925 C.3     1  UNL1        0.0700
     15 H          -6.3886  -15.6953   27.7691 H       1  UNL1        0.1232
     16 O          -9.0013  -17.8674   23.6977 O.3     1  UNL1       -0.4747
     17 C         -10.2505  -17.5649   22.9243 C.ar    1  UNL1        0.1397
     18 C         -11.5818  -18.0252   23.4398 C.ar    1  UNL1        0.0370
     19 C         -12.8309  -17.7227   22.6665 C.ar    1  UNL1        0.0040
     20 C         -12.7488  -16.9599   21.3776 C.ar    1  UNL1        0.0116
     21 C         -11.4175  -16.4995   20.8620 C.ar    1  UNL1        0.0607
     22 CL        -11.3355  -15.7366   19.5731 Cl      1  UNL1       -0.0821
     23 C         -10.1684  -16.8020   21.6353 C.ar    1  UNL1        0.0483
@<TRIPOS>BOND
     1     2     3    1
     2     3     4   ar
     3     4     5   ar
     4     5     1    1
     5     1    10    1
     6    10    11    1
     7    11    12    1
     8    12    13    1
     9    13    14    1
    10     1    16    1
    11    16    17    1
    12    17    18   ar
    13    18    19   ar
    14    19    20   ar
    15    20    21   ar
    16    21    22    1
    17    21    23   ar
    18     5     6   ar
    19     6     7   ar
    20     7     8   ar
    21     8     9    1
    22     8     3   ar
    23    14    11    1
    24    23    17   ar
    25    13    15    1
@<TRIPOS>MOLECULE
*****
 23 25 0 0 0
SMALL
GASTEIGER

@<TRIPOS>ATOM
      1 C          -8.5866  -17.4360   22.4106 C.3     1  UNL1        0.1883
      2 F          -4.9395  -14.9475   25.1503 F       1  UNL1       -0.2033
      3 C          -6.2980  -15.5781   25.0678 C.ar    1  UNL1        0.1504
      4 C          -6.7631  -16.1918   23.7805 C.ar    1  UNL1        0.0297
      5 C          -8.1216  -16.8223   23.6979 C.ar    1  UNL1        0.0195
      6 C          -9.0151  -16.8392   24.9027 C.ar    1  UNL1        0.0002
      7 C          -8.5500  -16.2256   26.1899 C.ar    1  UNL1        0.0135
      8 C          -7.1915  -15.5950   26.2725 C.ar    1  UNL1        0.0850
      9 CL         -6.7265  -14.9813   27.5598 Cl      1  UNL1       -0.0799
     10 C          -9.9500  -18.0555   22.3245 C.3     1  UNL1        0.0510
     11 C         -11.0353  -17.3745   21.5445 C.3     1  UNL1        0.0354
     12 C         -12.4733  -17.6759   21.2425 C.3     1  UNL1        0.0700
     13 N         -12.5701  -16.4115   20.4414 N.3     1  UNL1       -0.2974
     14 C         -11.1321  -16.1100   20.7434 C.3     1  UNL1        0.0700
     15 H         -13.2270  -15.7285   20.8190 H       1  UNL1        0.1232
     16 O          -7.6883  -17.4303   21.2094 O.3     1  UNL1       -0.4747
     17 C          -6.7919  -18.6019   20.9376 C.ar    1  UNL1        0.1397
     18 C          -7.3095  -19.7788   20.1650 C.ar    1  UNL1        0.0370
     19 C          -6.4131  -20.9504   19.8931 C.ar    1  UNL1        0.0040
     20 C          -4.9993  -20.9451   20.3939 C.ar    1  UNL1        0.0116
     21 C          -4.4816  -19.7682   21.1666 C.ar    1  UNL1        0.0607
     22 CL         -3.0677  -19.7629   21.6674 Cl      1  UNL1       -0.0821
     23 C          -5.3780  -18.5966   21.4384 C.ar    1  UNL1        0.0483
@<TRIPOS>BOND
     1     2     3    1
     2     3     4   ar
     3     4     5   ar
     4     5     1    1
     5     1    10    1
     6    10    11    1
     7    11    12    1
     8    12    13    1
     9    13    14    1
    10     1    16    1
    11    16    17    1
    12    17    18   ar
    13    18    19   ar
    14    19    20   ar
    15    20    21   ar
    16    21    22    1
    17    21    23   ar
    18     5     6   ar
    19     6     7   ar
    20     7     8   ar
    21     8     9    1
    22     8     3   ar
    23    14    11    1
    24    23    17   ar
    25    13    15    1
@<TRIPOS>MOLECULE
*****
 23 25 0 0 0
SMALL
GASTEIGER

@<TRIPOS>ATOM
      1 C          -8.7474  -18.9663   20.8700 C.3     1  UNL1        0.1883
      2 F          -9.7722  -18.3122   25.9220 F       1  UNL1       -0.2033
      3 C          -9.2145  -17.7896   24.6313 C.ar    1  UNL1        0.1504
      4 C          -9.2598  -18.6392   23.3960 C.ar    1  UNL1        0.0297
      5 C          -8.7021  -18.1166   22.1054 C.ar    1  UNL1        0.0195
      6 C          -8.0991  -16.7443   22.0500 C.ar    1  UNL1        0.0002
      7 C          -8.0539  -15.8946   23.2853 C.ar    1  UNL1        0.0135
      8 C          -8.6116  -16.4173   24.5759 C.ar    1  UNL1        0.0850
      9 CL         -8.5663  -15.5675   25.8113 Cl      1  UNL1       -0.0799
     10 C          -9.8944  -18.8366   19.9122 C.3     1  UNL1        0.0510
     11 C         -11.0293  -17.9063   20.2227 C.3     1  UNL1        0.0354
     12 C         -11.4241  -16.5293   19.7778 C.3     1  UNL1        0.0700
     13 N         -12.6344  -16.5906   20.6619 N.3     1  UNL1       -0.2974
     14 C         -12.2396  -17.9676   21.1068 C.3     1  UNL1        0.0700
     15 H         -13.5204  -16.5539   20.1580 H       1  UNL1        0.1232
     16 O          -7.6457  -19.9457   20.5926 O.3     1  UNL1       -0.4747
     17 C          -6.2229  -19.5795   20.8948 C.ar    1  UNL1        0.1397
     18 C          -5.7059  -19.6753   22.2996 C.ar    1  UNL1        0.0370
     19 C          -4.2830  -19.3090   22.6018 C.ar    1  UNL1        0.0040
     20 C          -3.3771  -18.8469   21.4991 C.ar    1  UNL1        0.0116
     21 C          -3.8941  -18.7511   20.0942 C.ar    1  UNL1        0.0607
     22 CL         -2.9882  -18.2890   18.9916 Cl      1  UNL1       -0.0821
     23 C          -5.3170  -19.1174   19.7921 C.ar    1  UNL1        0.0483
@<TRIPOS>BOND
     1     2     3    1
     2     3     4   ar
     3     4     5   ar
     4     5     1    1
     5     1    10    1
     6    10    11    1
     7    11    12    1
     8    12    13    1
     9    13    14    1
    10     1    16    1
    11    16    17    1
    12    17    18   ar
    13    18    19   ar
    14    19    20   ar
    15    20    21   ar
    16    21    22    1
    17    21    23   ar
    18     5     6   ar
    19     6     7   ar
    20     7     8   ar
    21     8     9    1
    22     8     3   ar
    23    14    11    1
    24    23    17   ar
    25    13    15    1
@<TRIPOS>MOLECULE
*****
 23 25 0 0 0
SMALL
GASTEIGER

@<TRIPOS>ATOM
      1 C          -8.3358  -18.9303   21.8203 C.3     1  UNL1        0.1883
      2 F          -6.9325  -14.5485   24.2350 F       1  UNL1       -0.2033
      3 C          -7.7228  -15.8232   24.2120 C.ar    1  UNL1        0.1504
      4 C          -7.6342  -16.7393   23.0277 C.ar    1  UNL1        0.0297
      5 C          -8.4244  -18.0141   23.0047 C.ar    1  UNL1        0.0195
      6 C          -9.3033  -18.3726   24.1661 C.ar    1  UNL1        0.0002
      7 C          -9.3920  -17.4565   25.3505 C.ar    1  UNL1        0.0135
      8 C          -8.6017  -16.1817   25.3734 C.ar    1  UNL1        0.0850
      9 CL         -8.6903  -15.2656   26.5579 Cl      1  UNL1       -0.0799
     10 C          -9.1353  -18.6387   20.5851 C.3     1  UNL1        0.0510
     11 C         -10.5456  -18.1420   20.7044 C.3     1  UNL1        0.0354
     12 C         -11.2990  -16.9535   20.1849 C.3     1  UNL1        0.0700
     13 N         -12.5401  -17.4395   20.8731 N.3     1  UNL1       -0.2974
     14 C         -11.7866  -18.6280   21.3926 C.3     1  UNL1        0.0700
     15 H         -13.3031  -17.6750   20.2385 H       1  UNL1        0.1232
     16 O          -7.4476  -20.1380   21.8711 O.3     1  UNL1       -0.4747
     17 C          -6.0020  -20.0225   21.4878 C.ar    1  UNL1        0.1397
     18 C          -5.4804  -20.7683   20.2955 C.ar    1  UNL1        0.0370
     19 C          -4.0348  -20.6528   19.9122 C.ar    1  UNL1        0.0040
     20 C          -3.1108  -19.7917   20.7213 C.ar    1  UNL1        0.0116
     21 C          -3.6324  -19.0458   21.9137 C.ar    1  UNL1        0.0607
     22 CL         -2.7085  -18.1847   22.7227 Cl      1  UNL1       -0.0821
     23 C          -5.0780  -19.1613   22.2970 C.ar    1  UNL1        0.0483
@<TRIPOS>BOND
     1     2     3    1
     2     3     4   ar
     3     4     5   ar
     4     5     1    1
     5     1    10    1
     6    10    11    1
     7    11    12    1
     8    12    13    1
     9    13    14    1
    10     1    16    1
    11    16    17    1
    12    17    18   ar
    13    18    19   ar
    14    19    20   ar
    15    20    21   ar
    16    21    22    1
    17    21    23   ar
    18     5     6   ar
    19     6     7   ar
    20     7     8   ar
    21     8     9    1
    22     8     3   ar
    23    14    11    1
    24    23    17   ar
    25    13    15    1
