@<TRIPOS>MOLECULE
*****
 29 33 0 0 0
SMALL
GASTEIGER

@<TRIPOS>ATOM
      1 C          -9.2455  -16.8178   22.7192 C.3     1  UNL1        0.1332
      2 N          -9.3744  -18.3007   22.9047 N.ar    1  UNL1       -0.2965
      3 C          -8.2895  -19.3139   22.6891 C.ar    1  UNL1        0.1662
      4 N          -8.8555  -20.6701   22.9896 N.ar    1  UNL1       -0.1291
      5 N         -10.2901  -20.4952   23.3909 N.ar    1  UNL1       -0.1330
      6 C         -10.6109  -19.0307   23.3385 C.ar    1  UNL1        0.1462
      7 C          -6.8852  -19.0220   22.2501 C.ar    1  UNL1        0.0359
      8 C          -6.3524  -19.6309   20.9870 C.ar    1  UNL1        0.0031
      9 C          -4.9481  -19.3390   20.5480 C.ar    1  UNL1        0.0016
     10 C          -4.0766  -18.4383   21.3721 C.ar    1  UNL1        0.0192
     11 C          -4.6093  -17.8294   22.6352 C.ar    1  UNL1        0.0016
     12 C          -6.0136  -18.1213   23.0742 C.ar    1  UNL1        0.0031
     13 C          -2.6722  -18.1464   20.9331 C.ar    1  UNL1        0.1004
     14 C          -1.7965  -19.2570   20.4334 C.ar    1  UNL1        0.1179
     15 N          -0.3922  -18.9651   19.9944 N.ar    1  UNL1       -0.2391
     16 C           0.1364  -17.5626   20.0550 C.ar    1  UNL1        0.1195
     17 C          -0.7394  -16.4520   20.5547 C.ar    1  UNL1        0.1195
     18 N          -2.1437  -16.7439   20.9937 N.ar    1  UNL1       -0.2406
     19 C         -11.9355  -18.4061   23.6628 C.3     1  UNL1        0.0712
     20 C         -11.9814  -19.1726   24.9514 C.3     1  UNL1        0.0112
     21 C         -13.3060  -18.5480   25.2757 C.3     1  UNL1        0.0015
     22 C         -13.2601  -17.7815   23.9872 C.3     1  UNL1        0.0112
     23 C         -11.8896  -17.6396   22.3743 C.ar    1  UNL1       -0.0160
     24 C         -11.5294  -18.3398   21.0975 C.ar    1  UNL1       -0.0030
     25 C         -11.4835  -17.5733   19.8090 C.ar    1  UNL1        0.0111
     26 C         -11.7977  -16.1065   19.7972 C.ar    1  UNL1        0.0577
     27 CL        -11.7518  -15.3401   18.5086 Cl      1  UNL1       -0.0822
     28 C         -12.1579  -15.4064   21.0739 C.ar    1  UNL1        0.0111
     29 C         -12.2038  -16.1730   22.3625 C.ar    1  UNL1       -0.0030
@<TRIPOS>BOND
     1     1     2    1
     2     2     3   ar
     3     3     7    1
     4     7     8   ar
     5     8     9   ar
     6     9    10   ar
     7    10    13    1
     8    13    14   ar
     9    14    15   ar
    10    15    16   ar
    11    16    17   ar
    12    17    18   ar
    13    10    11   ar
    14    11    12   ar
    15     3     4   ar
    16     4     5   ar
    17     5     6   ar
    18     6    19    1
    19    19    23    1
    20    23    24   ar
    21    24    25   ar
    22    25    26   ar
    23    26    27    1
    24    26    28   ar
    25    28    29   ar
    26    19    20    1
    27    20    21    1
    28    21    22    1
    29     6     2   ar
    30    22    19    1
    31    12     7   ar
    32    29    23   ar
    33    18    13   ar
@<TRIPOS>MOLECULE
*****
 29 33 0 0 0
SMALL
GASTEIGER

@<TRIPOS>ATOM
      1 C           4.3707   -2.8227   22.9122 C.3     1  UNL1        0.1332
      2 N           5.5849   -3.5675   22.4421 N.ar    1  UNL1       -0.2965
      3 C           6.6266   -4.1979   23.3182 C.ar    1  UNL1        0.1662
      4 N           7.6560   -4.8327   22.4309 N.ar    1  UNL1       -0.1291
      5 N           7.2506   -4.5947   21.0065 N.ar    1  UNL1       -0.1330
      6 C           5.9705   -3.8127   21.0134 C.ar    1  UNL1        0.1462
      7 C           6.6370   -4.1942   24.8182 C.ar    1  UNL1        0.0359
      8 C           6.8794   -5.4695   25.5697 C.ar    1  UNL1        0.0031
      9 C           6.8898   -5.4657   27.0696 C.ar    1  UNL1        0.0016
     10 C           6.6578   -4.1866   27.8180 C.ar    1  UNL1        0.0192
     11 C           6.4154   -2.9113   27.0665 C.ar    1  UNL1        0.0016
     12 C           6.4050   -2.9151   25.5666 C.ar    1  UNL1        0.0031
     13 C           6.6682   -4.1828   29.3180 C.ar    1  UNL1        0.1004
     14 C           6.8993   -5.4602   30.0697 C.ar    1  UNL1        0.1179
     15 N           6.9097   -5.4564   31.5697 N.ar    1  UNL1       -0.2391
     16 C           6.6890   -4.1753   32.3180 C.ar    1  UNL1        0.1195
     17 C           6.4579   -2.8979   31.5663 C.ar    1  UNL1        0.1195
     18 N           6.4475   -2.9017   30.0664 N.ar    1  UNL1       -0.2406
     19 C           5.2097   -3.3561   19.8040 C.3     1  UNL1        0.0712
     20 C           4.3197   -4.5589   19.9098 C.3     1  UNL1        0.0112
     21 C           3.5589   -4.1023   18.7004 C.3     1  UNL1        0.0015
     22 C           4.4488   -2.8995   18.5946 C.3     1  UNL1        0.0112
     23 C           6.0996   -2.1533   19.6982 C.ar    1  UNL1       -0.0160
     24 C           7.4473   -2.2722   19.0503 C.ar    1  UNL1       -0.0030
     25 C           8.3373   -1.0694   18.9445 C.ar    1  UNL1        0.0111
     26 C           7.8796    0.2523   19.4867 C.ar    1  UNL1        0.0577
     27 CL          8.7696    1.4551   19.3809 Cl      1  UNL1       -0.0822
     28 C           6.5320    0.3711   20.1346 C.ar    1  UNL1        0.0111
     29 C           5.6420   -0.8317   20.2404 C.ar    1  UNL1       -0.0030
@<TRIPOS>BOND
     1     1     2    1
     2     2     3   ar
     3     3     7    1
     4     7     8   ar
     5     8     9   ar
     6     9    10   ar
     7    10    13    1
     8    13    14   ar
     9    14    15   ar
    10    15    16   ar
    11    16    17   ar
    12    17    18   ar
    13    10    11   ar
    14    11    12   ar
    15     3     4   ar
    16     4     5   ar
    17     5     6   ar
    18     6    19    1
    19    19    23    1
    20    23    24   ar
    21    24    25   ar
    22    25    26   ar
    23    26    27    1
    24    26    28   ar
    25    28    29   ar
    26    19    20    1
    27    20    21    1
    28    21    22    1
    29     6     2   ar
    30    22    19    1
    31    12     7   ar
    32    29    23   ar
    33    18    13   ar
@<TRIPOS>MOLECULE
*****
 29 33 0 0 0
SMALL
GASTEIGER

@<TRIPOS>ATOM
      1 C           6.2561   -0.3376   20.3804 C.3     1  UNL1        0.1332
      2 N           5.6251   -1.6953   20.2896 N.ar    1  UNL1       -0.2965
      3 C           4.1637   -1.9777   20.1030 C.ar    1  UNL1        0.1662
      4 N           3.9801   -3.4660   20.0674 N.ar    1  UNL1       -0.1291
      5 N           5.3279   -4.1034   20.2320 N.ar    1  UNL1       -0.1330
      6 C           6.3446   -3.0091   20.3693 C.ar    1  UNL1        0.1462
      7 C           3.0769   -0.9518   19.9745 C.ar    1  UNL1        0.0359
      8 C           2.8407   -0.2701   18.6594 C.ar    1  UNL1        0.0031
      9 C           1.7539    0.7557   18.5310 C.ar    1  UNL1        0.0016
     10 C           0.9033    1.0998   19.7176 C.ar    1  UNL1        0.0192
     11 C           1.1395    0.4180   21.0327 C.ar    1  UNL1        0.0016
     12 C           2.2263   -0.6078   21.1611 C.ar    1  UNL1        0.0031
     13 C          -0.1836    2.1256   19.5891 C.ar    1  UNL1        0.1004
     14 C          -0.2003    3.0574   18.4138 C.ar    1  UNL1        0.1179
     15 N          -1.2871    4.0833   18.2853 N.ar    1  UNL1       -0.2391
     16 C          -2.3573    4.1773   19.3322 C.ar    1  UNL1        0.1195
     17 C          -2.3405    3.2454   20.5075 C.ar    1  UNL1        0.1195
     18 N          -1.2537    2.2196   20.6360 N.ar    1  UNL1       -0.2406
     19 C           7.8214   -3.1957   20.5540 C.3     1  UNL1        0.0712
     20 C           8.0592   -2.6923   19.1612 C.3     1  UNL1        0.0112
     21 C           9.5360   -2.8789   19.3458 C.3     1  UNL1        0.0015
     22 C           9.2982   -3.3824   20.7386 C.3     1  UNL1        0.0112
     23 C           7.5836   -3.6991   21.9468 C.ar    1  UNL1       -0.0160
     24 C           8.0760   -5.0582   22.3474 C.ar    1  UNL1       -0.0030
     25 C           7.8383   -5.5617   23.7402 C.ar    1  UNL1        0.0111
     26 C           7.1081   -4.7060   24.7326 C.ar    1  UNL1        0.0577
     27 CL          6.8703   -5.2094   26.1254 Cl      1  UNL1       -0.0822
     28 C           6.6157   -3.3469   24.3320 C.ar    1  UNL1        0.0111
     29 C           6.8535   -2.8435   22.9391 C.ar    1  UNL1       -0.0030
@<TRIPOS>BOND
     1     1     2    1
     2     2     3   ar
     3     3     7    1
     4     7     8   ar
     5     8     9   ar
     6     9    10   ar
     7    10    13    1
     8    13    14   ar
     9    14    15   ar
    10    15    16   ar
    11    16    17   ar
    12    17    18   ar
    13    10    11   ar
    14    11    12   ar
    15     3     4   ar
    16     4     5   ar
    17     5     6   ar
    18     6    19    1
    19    19    23    1
    20    23    24   ar
    21    24    25   ar
    22    25    26   ar
    23    26    27    1
    24    26    28   ar
    25    28    29   ar
    26    19    20    1
    27    20    21    1
    28    21    22    1
    29     6     2   ar
    30    22    19    1
    31    12     7   ar
    32    29    23   ar
    33    18    13   ar
@<TRIPOS>MOLECULE
*****
 29 33 0 0 0
SMALL
GASTEIGER

@<TRIPOS>ATOM
      1 C           1.0109   -0.3595   20.1362 C.3     1  UNL1        0.1332
      2 N           2.2387    0.3800   20.5783 N.ar    1  UNL1       -0.2965
      3 C           2.2965    1.4366   21.6415 C.ar    1  UNL1        0.1662
      4 N           3.7178    1.9025   21.7552 N.ar    1  UNL1       -0.1291
      5 N           4.5384    1.1338   20.7624 N.ar    1  UNL1       -0.1330
      6 C           3.6242    0.1928   20.0350 C.ar    1  UNL1        0.1462
      7 C           1.1366    1.9392   22.4491 C.ar    1  UNL1        0.0359
      8 C           0.1264    2.8537   21.8222 C.ar    1  UNL1        0.0031
      9 C          -1.0334    3.3562   22.6298 C.ar    1  UNL1        0.0016
     10 C          -1.1830    2.9442   24.0644 C.ar    1  UNL1        0.0192
     11 C          -0.1728    2.0297   24.6913 C.ar    1  UNL1        0.0016
     12 C           0.9870    1.5272   23.8836 C.ar    1  UNL1        0.0031
     13 C          -2.3429    3.4467   24.8720 C.ar    1  UNL1        0.1004
     14 C          -2.1068    4.0734   26.2141 C.ar    1  UNL1        0.1179
     15 N          -3.2666    4.5760   27.0218 N.ar    1  UNL1       -0.2391
     16 C          -4.6626    4.4518   26.4872 C.ar    1  UNL1        0.1195
     17 C          -4.8987    3.8251   25.1449 C.ar    1  UNL1        0.1195
     18 N          -3.7389    3.3225   24.3374 N.ar    1  UNL1       -0.2406
     19 C           4.0252   -0.7668   18.9541 C.3     1  UNL1        0.0712
     20 C           3.3685    0.1115   17.9307 C.3     1  UNL1        0.0112
     21 C           3.7695   -0.8481   16.8498 C.3     1  UNL1        0.0015
     22 C           4.4262   -1.7264   17.8732 C.3     1  UNL1        0.0112
     23 C           4.6818   -1.6451   19.9775 C.ar    1  UNL1       -0.0160
     24 C           3.8441   -2.3977   20.9684 C.ar    1  UNL1       -0.0030
     25 C           4.5007   -3.2760   21.9918 C.ar    1  UNL1        0.0111
     26 C           5.9952   -3.4018   22.0243 C.ar    1  UNL1        0.0577
     27 CL          6.6518   -4.2802   23.0477 Cl      1  UNL1       -0.0822
     28 C           6.8329   -2.6493   21.0334 C.ar    1  UNL1        0.0111
     29 C           6.1762   -1.7709   20.0100 C.ar    1  UNL1       -0.0030
@<TRIPOS>BOND
     1     1     2    1
     2     2     3   ar
     3     3     7    1
     4     7     8   ar
     5     8     9   ar
     6     9    10   ar
     7    10    13    1
     8    13    14   ar
     9    14    15   ar
    10    15    16   ar
    11    16    17   ar
    12    17    18   ar
    13    10    11   ar
    14    11    12   ar
    15     3     4   ar
    16     4     5   ar
    17     5     6   ar
    18     6    19    1
    19    19    23    1
    20    23    24   ar
    21    24    25   ar
    22    25    26   ar
    23    26    27    1
    24    26    28   ar
    25    28    29   ar
    26    19    20    1
    27    20    21    1
    28    21    22    1
    29     6     2   ar
    30    22    19    1
    31    12     7   ar
    32    29    23   ar
    33    18    13   ar
@<TRIPOS>MOLECULE
*****
 29 33 0 0 0
SMALL
GASTEIGER

@<TRIPOS>ATOM
      1 C           4.1550   -3.2972   20.6486 C.3     1  UNL1        0.1332
      2 N           5.0793   -2.1261   20.8035 N.ar    1  UNL1       -0.2965
      3 C           6.1868   -2.0038   21.8079 C.ar    1  UNL1        0.1662
      4 N           6.8504   -0.6738   21.6064 N.ar    1  UNL1       -0.1291
      5 N           6.1532    0.0259   20.4776 N.ar    1  UNL1       -0.1330
      6 C           5.0585   -0.8717   19.9814 C.ar    1  UNL1        0.1462
      7 C           6.5643   -3.0312   22.8336 C.ar    1  UNL1        0.0359
      8 C           6.1240   -2.8660   24.2579 C.ar    1  UNL1        0.0031
      9 C           6.5015   -3.8934   25.2835 C.ar    1  UNL1        0.0016
     10 C           7.3193   -5.0859   24.8848 C.ar    1  UNL1        0.0192
     11 C           7.7596   -5.2511   23.4605 C.ar    1  UNL1        0.0016
     12 C           7.3821   -4.2237   22.4349 C.ar    1  UNL1        0.0031
     13 C           7.6968   -6.1133   25.9105 C.ar    1  UNL1        0.1004
     14 C           7.7083   -7.5682   25.5458 C.ar    1  UNL1        0.1179
     15 N           8.0858   -8.5956   26.5715 N.ar    1  UNL1       -0.2391
     16 C           8.4518   -8.1680   27.9619 C.ar    1  UNL1        0.1195
     17 C           8.4403   -6.7130   28.3266 C.ar    1  UNL1        0.1195
     18 N           8.0628   -5.6857   27.3009 N.ar    1  UNL1       -0.2406
     19 C           4.1097   -0.5681   18.8599 C.3     1  UNL1        0.0712
     20 C           5.0814   -1.1545   17.8791 C.3     1  UNL1        0.0112
     21 C           4.1326   -0.8510   16.7577 C.3     1  UNL1        0.0015
     22 C           3.1610   -0.2646   17.7385 C.3     1  UNL1        0.0112
     23 C           3.1381    0.0183   19.8407 C.ar    1  UNL1       -0.0160
     24 C           1.7665   -0.5723   19.9822 C.ar    1  UNL1       -0.0030
     25 C           0.7949    0.0141   20.9630 C.ar    1  UNL1        0.0111
     26 C           1.1948    1.1913   21.8024 C.ar    1  UNL1        0.0577
     27 CL          0.2232    1.7777   22.7832 Cl      1  UNL1       -0.0822
     28 C           2.5664    1.7819   21.6610 C.ar    1  UNL1        0.0111
     29 C           3.5380    1.1954   20.6801 C.ar    1  UNL1       -0.0030
@<TRIPOS>BOND
     1     1     2    1
     2     2     3   ar
     3     3     7    1
     4     7     8   ar
     5     8     9   ar
     6     9    10   ar
     7    10    13    1
     8    13    14   ar
     9    14    15   ar
    10    15    16   ar
    11    16    17   ar
    12    17    18   ar
    13    10    11   ar
    14    11    12   ar
    15     3     4   ar
    16     4     5   ar
    17     5     6   ar
    18     6    19    1
    19    19    23    1
    20    23    24   ar
    21    24    25   ar
    22    25    26   ar
    23    26    27    1
    24    26    28   ar
    25    28    29   ar
    26    19    20    1
    27    20    21    1
    28    21    22    1
    29     6     2   ar
    30    22    19    1
    31    12     7   ar
    32    29    23   ar
    33    18    13   ar
@<TRIPOS>MOLECULE
*****
 29 33 0 0 0
SMALL
GASTEIGER

@<TRIPOS>ATOM
      1 C           2.3791    0.0204   22.3809 C.3     1  UNL1        0.1332
      2 N           3.8556    0.1210   22.1361 N.ar    1  UNL1       -0.2965
      3 C           4.9282    0.0729   23.1836 C.ar    1  UNL1        0.1662
      4 N           6.2542    0.2096   22.4958 N.ar    1  UNL1       -0.1291
      5 N           6.0011    0.3422   21.0233 N.ar    1  UNL1       -0.1330
      6 C           4.5186    0.2875   20.8010 C.ar    1  UNL1        0.1462
      7 C           4.7127   -0.0844   24.6597 C.ar    1  UNL1        0.0359
      8 C           4.5002   -1.4488   25.2455 C.ar    1  UNL1        0.0031
      9 C           4.2846   -1.6060   26.7215 C.ar    1  UNL1        0.0016
     10 C           4.2816   -0.3988   27.6118 C.ar    1  UNL1        0.0192
     11 C           4.4942    0.9656   27.0261 C.ar    1  UNL1        0.0016
     12 C           4.7097    1.1228   25.5500 C.ar    1  UNL1        0.0031
     13 C           4.0661   -0.5561   29.0879 C.ar    1  UNL1        0.1004
     14 C           2.6761   -0.5223   29.6507 C.ar    1  UNL1        0.1179
     15 N           2.4606   -0.6796   31.1269 N.ar    1  UNL1       -0.2391
     16 C           3.6351   -0.8706   32.0401 C.ar    1  UNL1        0.1195
     17 C           5.0251   -0.9044   31.4773 C.ar    1  UNL1        0.1195
     18 N           5.2406   -0.7471   30.0012 N.ar    1  UNL1       -0.2406
     19 C           3.8216    0.3826   19.4762 C.3     1  UNL1        0.0712
     20 C           3.5738    1.8431   19.7113 C.3     1  UNL1        0.0112
     21 C           2.8768    1.9382   18.3865 C.3     1  UNL1        0.0015
     22 C           3.1246    0.4776   18.1514 C.3     1  UNL1        0.0112
     23 C           4.0693   -1.0780   19.2410 C.ar    1  UNL1       -0.0160
     24 C           5.2766   -1.5190   18.4677 C.ar    1  UNL1       -0.0030
     25 C           5.5244   -2.9795   18.2325 C.ar    1  UNL1        0.0111
     26 C           4.5648   -3.9992   18.7707 C.ar    1  UNL1        0.0577
     27 CL          4.8126   -5.4598   18.5355 Cl      1  UNL1       -0.0822
     28 C           3.3575   -3.5583   19.5440 C.ar    1  UNL1        0.0111
     29 C           3.1098   -2.0976   19.7792 C.ar    1  UNL1       -0.0030
@<TRIPOS>BOND
     1     1     2    1
     2     2     3   ar
     3     3     7    1
     4     7     8   ar
     5     8     9   ar
     6     9    10   ar
     7    10    13    1
     8    13    14   ar
     9    14    15   ar
    10    15    16   ar
    11    16    17   ar
    12    17    18   ar
    13    10    11   ar
    14    11    12   ar
    15     3     4   ar
    16     4     5   ar
    17     5     6   ar
    18     6    19    1
    19    19    23    1
    20    23    24   ar
    21    24    25   ar
    22    25    26   ar
    23    26    27    1
    24    26    28   ar
    25    28    29   ar
    26    19    20    1
    27    20    21    1
    28    21    22    1
    29     6     2   ar
    30    22    19    1
    31    12     7   ar
    32    29    23   ar
    33    18    13   ar
@<TRIPOS>MOLECULE
*****
 29 33 0 0 0
SMALL
GASTEIGER

@<TRIPOS>ATOM
      1 C           6.8297   -0.9486   21.6837 C.3     1  UNL1        0.1332
      2 N           6.1978   -2.0968   20.9542 N.ar    1  UNL1       -0.2965
      3 C           6.1068   -3.5110   21.4459 C.ar    1  UNL1        0.1662
      4 N           5.3986   -4.3206   20.4005 N.ar    1  UNL1       -0.1291
      5 N           5.0518   -3.4068   19.2626 N.ar    1  UNL1       -0.1330
      6 C           5.5458   -2.0323   19.6049 C.ar    1  UNL1        0.1462
      7 C           6.6319   -4.0253   22.7535 C.ar    1  UNL1        0.0359
      8 C           5.9722   -3.6201   24.0382 C.ar    1  UNL1        0.0031
      9 C           6.4973   -4.1344   25.3458 C.ar    1  UNL1        0.0016
     10 C           7.6822   -5.0539   25.3686 C.ar    1  UNL1        0.0192
     11 C           8.3419   -5.4591   24.0839 C.ar    1  UNL1        0.0016
     12 C           7.8168   -4.9448   22.7764 C.ar    1  UNL1        0.0031
     13 C           8.2073   -5.5682   26.6762 C.ar    1  UNL1        0.1004
     14 C           8.0456   -7.0164   27.0320 C.ar    1  UNL1        0.1179
     15 N           8.5707   -7.5307   28.3396 N.ar    1  UNL1       -0.2391
     16 C           9.2575   -6.5967   29.2915 C.ar    1  UNL1        0.1195
     17 C           9.4192   -5.1485   28.9357 C.ar    1  UNL1        0.1195
     18 N           8.8941   -4.6343   27.6281 N.ar    1  UNL1       -0.2406
     19 C           5.4113   -0.8084   18.7482 C.3     1  UNL1        0.0712
     20 C           6.6364   -1.2103   17.9817 C.3     1  UNL1        0.0112
     21 C           6.5019    0.0136   17.1250 C.3     1  UNL1        0.0015
     22 C           5.2768    0.4155   17.8915 C.3     1  UNL1        0.0112
     23 C           4.1861   -0.4065   19.5147 C.ar    1  UNL1       -0.0160
     24 C           4.1708    0.8822   20.2821 C.ar    1  UNL1       -0.0030
     25 C           2.9457    1.2841   21.0486 C.ar    1  UNL1        0.0111
     26 C           1.7358    0.3972   21.0477 C.ar    1  UNL1        0.0577
     27 CL          0.5107    0.7991   21.8142 Cl      1  UNL1       -0.0822
     28 C           1.7512   -0.8915   20.2803 C.ar    1  UNL1        0.0111
     29 C           2.9764   -1.2934   19.5137 C.ar    1  UNL1       -0.0030
@<TRIPOS>BOND
     1     1     2    1
     2     2     3   ar
     3     3     7    1
     4     7     8   ar
     5     8     9   ar
     6     9    10   ar
     7    10    13    1
     8    13    14   ar
     9    14    15   ar
    10    15    16   ar
    11    16    17   ar
    12    17    18   ar
    13    10    11   ar
    14    11    12   ar
    15     3     4   ar
    16     4     5   ar
    17     5     6   ar
    18     6    19    1
    19    19    23    1
    20    23    24   ar
    21    24    25   ar
    22    25    26   ar
    23    26    27    1
    24    26    28   ar
    25    28    29   ar
    26    19    20    1
    27    20    21    1
    28    21    22    1
    29     6     2   ar
    30    22    19    1
    31    12     7   ar
    32    29    23   ar
    33    18    13   ar
@<TRIPOS>MOLECULE
*****
 29 33 0 0 0
SMALL
GASTEIGER

@<TRIPOS>ATOM
      1 C           6.1366    1.5511   35.3399 C.3     1  UNL1        0.1332
      2 N           4.7449    1.7361   34.8118 N.ar    1  UNL1       -0.2965
      3 C           4.0887    0.9082   33.7469 C.ar    1  UNL1        0.1662
      4 N           2.7033    1.4419   33.5328 N.ar    1  UNL1       -0.1291
      5 N           2.5033    2.5996   34.4654 N.ar    1  UNL1       -0.1330
      6 C           3.7651    2.7814   35.2559 C.ar    1  UNL1        0.1462
      7 C           4.7090   -0.2501   33.0231 C.ar    1  UNL1        0.0359
      8 C           5.4808   -0.0176   31.7581 C.ar    1  UNL1        0.0031
      9 C           6.1011   -1.1758   31.0345 C.ar    1  UNL1        0.0016
     10 C           5.9496   -2.5665   31.5758 C.ar    1  UNL1        0.0192
     11 C           5.1778   -2.7990   32.8408 C.ar    1  UNL1        0.0016
     12 C           4.5575   -1.6407   33.5645 C.ar    1  UNL1        0.0031
     13 C           6.5699   -3.7247   30.8521 C.ar    1  UNL1        0.1004
     14 C           6.6471   -3.7187   29.3541 C.ar    1  UNL1        0.1179
     15 N           7.2674   -4.8769   28.6303 N.ar    1  UNL1       -0.2391
     16 C           7.8106   -6.0412   29.4047 C.ar    1  UNL1        0.1195
     17 C           7.7334   -6.0472   30.9027 C.ar    1  UNL1        0.1195
     18 N           7.1130   -4.8890   31.6264 N.ar    1  UNL1       -0.2406
     19 C           4.0049    3.8253   36.3060 C.3     1  UNL1        0.0712
     20 C           4.8150    4.6233   35.3277 C.3     1  UNL1        0.0112
     21 C           5.0549    5.6671   36.3779 C.3     1  UNL1        0.0015
     22 C           4.2448    4.8692   37.3561 C.3     1  UNL1        0.0112
     23 C           3.1948    3.0273   37.2842 C.ar    1  UNL1       -0.0160
     24 C           3.7552    1.7644   37.8681 C.ar    1  UNL1       -0.0030
     25 C           2.9451    0.9664   38.8463 C.ar    1  UNL1        0.0111
     26 C           1.5745    1.4314   39.2407 C.ar    1  UNL1        0.0577
     27 CL          0.7644    0.6334   40.2190 Cl      1  UNL1       -0.0822
     28 C           1.0142    2.6944   38.6569 C.ar    1  UNL1        0.0111
     29 C           1.8243    3.4924   37.6786 C.ar    1  UNL1       -0.0030
@<TRIPOS>BOND
     1     1     2    1
     2     2     3   ar
     3     3     7    1
     4     7     8   ar
     5     8     9   ar
     6     9    10   ar
     7    10    13    1
     8    13    14   ar
     9    14    15   ar
    10    15    16   ar
    11    16    17   ar
    12    17    18   ar
    13    10    11   ar
    14    11    12   ar
    15     3     4   ar
    16     4     5   ar
    17     5     6   ar
    18     6    19    1
    19    19    23    1
    20    23    24   ar
    21    24    25   ar
    22    25    26   ar
    23    26    27    1
    24    26    28   ar
    25    28    29   ar
    26    19    20    1
    27    20    21    1
    28    21    22    1
    29     6     2   ar
    30    22    19    1
    31    12     7   ar
    32    29    23   ar
    33    18    13   ar
@<TRIPOS>MOLECULE
*****
 29 33 0 0 0
SMALL
GASTEIGER

@<TRIPOS>ATOM
      1 C           6.9590   -0.2894   20.6223 C.3     1  UNL1        0.1332
      2 N           6.2936   -1.2544   19.6864 N.ar    1  UNL1       -0.2965
      3 C           6.1567   -2.7334   19.8957 C.ar    1  UNL1        0.1662
      4 N           5.4267   -3.3029   18.7155 N.ar    1  UNL1       -0.1291
      5 N           5.1125   -2.1759   17.7769 N.ar    1  UNL1       -0.1330
      6 C           5.6482   -0.9098   18.3769 C.ar    1  UNL1        0.1462
      7 C           6.6612   -3.5071   21.0776 C.ar    1  UNL1        0.0359
      8 C           5.8888   -3.5007   22.3634 C.ar    1  UNL1        0.0031
      9 C           6.3933   -4.2744   23.5452 C.ar    1  UNL1        0.0016
     10 C           7.6704   -5.0544   23.4413 C.ar    1  UNL1        0.0192
     11 C           8.4428   -5.0608   22.1556 C.ar    1  UNL1        0.0016
     12 C           7.9383   -4.2871   20.9737 C.ar    1  UNL1        0.0031
     13 C           8.1749   -5.8281   24.6233 C.ar    1  UNL1        0.1004
     14 C           8.0578   -7.3233   24.6464 C.ar    1  UNL1        0.1179
     15 N           8.5623   -8.0970   25.8284 N.ar    1  UNL1       -0.2391
     16 C           9.1840   -7.3754   26.9872 C.ar    1  UNL1        0.1195
     17 C           9.3011   -5.8801   26.9640 C.ar    1  UNL1        0.1195
     18 N           8.7965   -5.1065   25.7821 N.ar    1  UNL1       -0.2406
     19 C           5.5550    0.4603   17.7735 C.3     1  UNL1        0.0712
     20 C           6.8837    0.2574   17.1076 C.3     1  UNL1        0.0112
     21 C           6.7904    1.6275   16.5042 C.3     1  UNL1        0.0015
     22 C           5.4617    1.8303   17.1700 C.3     1  UNL1        0.0112
     23 C           4.2263    0.6631   18.4393 C.ar    1  UNL1       -0.0160
     24 C           2.9928    0.0382   17.8579 C.ar    1  UNL1       -0.0030
     25 C           1.6641    0.2410   18.5238 C.ar    1  UNL1        0.0111
     26 C           1.5688    1.0688   19.7711 C.ar    1  UNL1        0.0577
     27 CL          0.2401    1.2717   20.4369 Cl      1  UNL1       -0.0822
     28 C           2.8023    1.6938   20.3525 C.ar    1  UNL1        0.0111
     29 C           4.1310    1.4909   19.6866 C.ar    1  UNL1       -0.0030
@<TRIPOS>BOND
     1     1     2    1
     2     2     3   ar
     3     3     7    1
     4     7     8   ar
     5     8     9   ar
     6     9    10   ar
     7    10    13    1
     8    13    14   ar
     9    14    15   ar
    10    15    16   ar
    11    16    17   ar
    12    17    18   ar
    13    10    11   ar
    14    11    12   ar
    15     3     4   ar
    16     4     5   ar
    17     5     6   ar
    18     6    19    1
    19    19    23    1
    20    23    24   ar
    21    24    25   ar
    22    25    26   ar
    23    26    27    1
    24    26    28   ar
    25    28    29   ar
    26    19    20    1
    27    20    21    1
    28    21    22    1
    29     6     2   ar
    30    22    19    1
    31    12     7   ar
    32    29    23   ar
    33    18    13   ar
