@<TRIPOS>MOLECULE
*****
 24 27 0 0 0
SMALL
GASTEIGER

@<TRIPOS>ATOM
      1 N          -3.9704  -18.4503   21.9579 N.ar    1  UNL1       -0.3164
      2 C          -3.1247  -18.8450   20.7837 C.ar    1  UNL1        0.0779
      3 C          -4.0252  -19.4443   19.7445 C.ar    1  UNL1        0.0392
      4 C          -5.4275  -19.4200   20.2765 C.ar    1  UNL1        0.0985
      5 N          -6.7308  -19.8778   19.6920 N.ar    1  UNL1       -0.2423
      6 C          -8.0003  -19.7214   20.4755 C.ar    1  UNL1        0.0989
      7 C          -7.9664  -19.1070   21.8435 C.ar    1  UNL1        0.0206
      8 C          -6.6631  -18.6492   22.4280 C.ar    1  UNL1        0.0203
      9 C          -5.3936  -18.8057   21.6445 C.ar    1  UNL1        0.0782
     10 C          -9.2360  -18.9506   22.6270 C.ar    1  UNL1        0.0014
     11 C          -9.5072  -19.8431   23.8017 C.ar    1  UNL1        0.0023
     12 C         -10.7767  -19.6866   24.5852 C.ar    1  UNL1        0.0293
     13 C         -11.7750  -18.6376   24.1940 C.ar    1  UNL1        0.1361
     14 F         -13.0445  -18.4811   24.9774 F       1  UNL1       -0.2045
     15 C         -11.5038  -17.7451   23.0192 C.ar    1  UNL1        0.0056
     16 C         -12.5021  -16.6962   22.6280 C.3     1  UNL1        0.0334
     17 C         -10.2343  -17.9016   22.2358 C.ar    1  UNL1       -0.0020
     18 C          -3.4792  -17.8123   23.2235 C.3     1  UNL1        0.1937
     19 C          -6.2616  -15.2432   26.9031 C.3     1  UNL1        0.0967
     20 C          -5.5949  -15.5963   25.6067 C.ar    1  UNL1        0.2267
     21 N          -5.6121  -14.7725   24.3533 N.ar    1  UNL1       -0.1116
     22 N          -4.8217  -15.5023   23.3080 N.ar    1  UNL1       -0.1096
     23 C          -4.3160  -16.7772   23.9154 C.ar    1  UNL1        0.2489
     24 O          -4.7938  -16.8353   25.3360 O.2     1  UNL1       -0.4213
@<TRIPOS>BOND
     1    19    20    1
     2    20    21   ar
     3    21    22   ar
     4    22    23   ar
     5    23    18    1
     6    18     1    1
     7     1     2   ar
     8     2     3   ar
     9     3     4   ar
    10     4     5   ar
    11     5     6   ar
    12     6     7   ar
    13     7    10    1
    14    10    11   ar
    15    11    12   ar
    16    12    13   ar
    17    13    14    1
    18    13    15   ar
    19    15    16    1
    20    15    17   ar
    21     7     8   ar
    22     8     9   ar
    23    23    24   ar
    24    24    20   ar
    25     9     1   ar
    26     9     4   ar
    27    17    10   ar
@<TRIPOS>MOLECULE
*****
 24 27 0 0 0
SMALL
GASTEIGER

@<TRIPOS>ATOM
      1 N         -10.6587  -18.4883   23.3045 N.ar    1  UNL1       -0.3164
      2 C         -12.0267  -18.4518   22.6903 C.ar    1  UNL1        0.0779
      3 C         -11.8881  -18.7691   21.2308 C.ar    1  UNL1        0.0392
      4 C         -10.4344  -19.0017   20.9430 C.ar    1  UNL1        0.0985
      5 N          -9.7045  -19.3490   19.6795 N.ar    1  UNL1       -0.2423
      6 C          -8.2147  -19.5228   19.6976 C.ar    1  UNL1        0.0989
      7 C          -7.4549  -19.3492   20.9793 C.ar    1  UNL1        0.0206
      8 C          -8.1848  -19.0019   22.2428 C.ar    1  UNL1        0.0203
      9 C          -9.6746  -18.8281   22.2246 C.ar    1  UNL1        0.0782
     10 C          -5.9651  -19.5230   20.9973 C.ar    1  UNL1        0.0014
     11 C          -5.3139  -20.5103   20.0748 C.ar    1  UNL1        0.0023
     12 C          -3.8241  -20.6841   20.0929 C.ar    1  UNL1        0.0293
     13 C          -2.9855  -19.8706   21.0335 C.ar    1  UNL1        0.1361
     14 F          -1.4957  -20.0443   21.0516 F       1  UNL1       -0.2045
     15 C          -3.6367  -18.8832   21.9561 C.ar    1  UNL1        0.0056
     16 C          -2.7981  -18.0697   22.8968 C.3     1  UNL1        0.0334
     17 C          -5.1265  -18.7095   21.9380 C.ar    1  UNL1       -0.0020
     18 C         -10.3321  -18.2302   24.7456 C.3     1  UNL1        0.1937
     19 C          -6.8786  -15.2711   27.4287 C.3     1  UNL1        0.0967
     20 C          -7.7859  -15.7765   26.3464 C.ar    1  UNL1        0.2267
     21 N          -8.0099  -15.1314   25.0110 N.ar    1  UNL1       -0.1116
     22 N          -8.9909  -15.9719   24.2487 N.ar    1  UNL1       -0.1096
     23 C          -9.3733  -17.1367   25.1132 C.ar    1  UNL1        0.2489
     24 O          -8.6285  -17.0159   26.4096 O.2     1  UNL1       -0.4213
@<TRIPOS>BOND
     1    19    20    1
     2    20    21   ar
     3    21    22   ar
     4    22    23   ar
     5    23    18    1
     6    18     1    1
     7     1     2   ar
     8     2     3   ar
     9     3     4   ar
    10     4     5   ar
    11     5     6   ar
    12     6     7   ar
    13     7    10    1
    14    10    11   ar
    15    11    12   ar
    16    12    13   ar
    17    13    14    1
    18    13    15   ar
    19    15    16    1
    20    15    17   ar
    21     7     8   ar
    22     8     9   ar
    23    23    24   ar
    24    24    20   ar
    25     9     1   ar
    26     9     4   ar
    27    17    10   ar
@<TRIPOS>MOLECULE
*****
 24 27 0 0 0
SMALL
GASTEIGER

@<TRIPOS>ATOM
      1 N          -5.0899  -17.7031   23.1101 N.ar    1  UNL1       -0.3164
      2 C          -4.0876  -16.8625   23.8441 C.ar    1  UNL1        0.0779
      3 C          -4.8256  -15.7445   24.5189 C.ar    1  UNL1        0.0392
      4 C          -6.2841  -15.8941   24.2019 C.ar    1  UNL1        0.0985
      5 N          -7.4845  -15.0845   24.5937 N.ar    1  UNL1       -0.2423
      6 C          -8.8483  -15.4854   24.1147 C.ar    1  UNL1        0.0989
      7 C          -9.0116  -16.6959   23.2440 C.ar    1  UNL1        0.0206
      8 C          -7.8112  -17.5055   22.8523 C.ar    1  UNL1        0.0203
      9 C          -6.4475  -17.1046   23.3313 C.ar    1  UNL1        0.0782
     10 C         -10.3755  -17.0967   22.7651 C.ar    1  UNL1        0.0014
     11 C         -10.6623  -17.1706   21.2947 C.ar    1  UNL1        0.0023
     12 C         -12.0261  -17.5714   20.8157 C.ar    1  UNL1        0.0293
     13 C         -13.1031  -17.8984   21.8073 C.ar    1  UNL1        0.1361
     14 F         -14.4669  -18.2993   21.3284 F       1  UNL1       -0.2045
     15 C         -12.8162  -17.8245   23.2778 C.ar    1  UNL1        0.0056
     16 C         -13.8932  -18.1515   24.2694 C.3     1  UNL1        0.0334
     17 C         -11.4525  -17.4237   23.7567 C.ar    1  UNL1       -0.0020
     18 C          -4.7878  -18.9272   22.2976 C.3     1  UNL1        0.1937
     19 C          -1.4538  -17.8547   18.3459 C.3     1  UNL1        0.0967
     20 C          -2.0570  -18.4589   19.5793 C.ar    1  UNL1        0.2267
     21 N          -1.4339  -19.5206   20.4362 N.ar    1  UNL1       -0.1116
     22 N          -2.3809  -19.8253   21.5588 N.ar    1  UNL1       -0.1096
     23 C          -3.5894  -18.9518   21.3956 C.ar    1  UNL1        0.2489
     24 O          -3.3892  -18.1074   20.1722 O.2     1  UNL1       -0.4213
@<TRIPOS>BOND
     1    19    20    1
     2    20    21   ar
     3    21    22   ar
     4    22    23   ar
     5    23    18    1
     6    18     1    1
     7     1     2   ar
     8     2     3   ar
     9     3     4   ar
    10     4     5   ar
    11     5     6   ar
    12     6     7   ar
    13     7    10    1
    14    10    11   ar
    15    11    12   ar
    16    12    13   ar
    17    13    14    1
    18    13    15   ar
    19    15    16    1
    20    15    17   ar
    21     7     8   ar
    22     8     9   ar
    23    23    24   ar
    24    24    20   ar
    25     9     1   ar
    26     9     4   ar
    27    17    10   ar
@<TRIPOS>MOLECULE
*****
 24 27 0 0 0
SMALL
GASTEIGER

@<TRIPOS>ATOM
      1 N          -4.7335  -19.9124   20.4288 N.ar    1  UNL1       -0.3164
      2 C          -3.4782  -20.1144   19.6330 C.ar    1  UNL1        0.0779
      3 C          -2.4488  -19.1472   20.1377 C.ar    1  UNL1        0.0392
      4 C          -3.0678  -18.3474   21.2455 C.ar    1  UNL1        0.0985
      5 N          -2.5282  -17.2496   22.1135 N.ar    1  UNL1       -0.2423
      6 C          -3.4006  -16.6248   23.1616 C.ar    1  UNL1        0.0989
      7 C          -4.8126  -17.0978   23.3416 C.ar    1  UNL1        0.0206
      8 C          -5.3523  -18.1956   22.4735 C.ar    1  UNL1        0.0203
      9 C          -4.4799  -18.8204   21.4254 C.ar    1  UNL1        0.0782
     10 C          -5.6851  -16.4729   24.3897 C.ar    1  UNL1        0.0014
     11 C          -5.0889  -16.0209   25.6898 C.ar    1  UNL1        0.0023
     12 C          -5.9614  -15.3960   26.7379 C.ar    1  UNL1        0.0293
     13 C          -7.4299  -15.2232   26.4858 C.ar    1  UNL1        0.1361
     14 F          -8.3023  -14.5984   27.5339 F       1  UNL1       -0.2045
     15 C          -8.0260  -15.6753   25.1857 C.ar    1  UNL1        0.0056
     16 C          -9.4946  -15.5025   24.9337 C.3     1  UNL1        0.0334
     17 C          -7.1536  -16.3002   24.1377 C.ar    1  UNL1       -0.0020
     18 C          -6.0171  -20.6695   20.2581 C.3     1  UNL1        0.1937
     19 C         -10.4683  -18.4541   22.0357 C.3     1  UNL1        0.0967
     20 C          -9.3745  -18.9246   21.1234 C.ar    1  UNL1        0.2267
     21 N          -9.3186  -18.7252   19.6378 N.ar    1  UNL1       -0.1116
     22 N          -8.0542  -19.3545   19.1329 N.ar    1  UNL1       -0.1096
     23 C          -7.3286  -19.9430   20.3064 C.ar    1  UNL1        0.2489
     24 O          -8.1446  -19.6773   21.5366 O.2     1  UNL1       -0.4213
@<TRIPOS>BOND
     1    19    20    1
     2    20    21   ar
     3    21    22   ar
     4    22    23   ar
     5    23    18    1
     6    18     1    1
     7     1     2   ar
     8     2     3   ar
     9     3     4   ar
    10     4     5   ar
    11     5     6   ar
    12     6     7   ar
    13     7    10    1
    14    10    11   ar
    15    11    12   ar
    16    12    13   ar
    17    13    14    1
    18    13    15   ar
    19    15    16    1
    20    15    17   ar
    21     7     8   ar
    22     8     9   ar
    23    23    24   ar
    24    24    20   ar
    25     9     1   ar
    26     9     4   ar
    27    17    10   ar
@<TRIPOS>MOLECULE
*****
 24 27 0 0 0
SMALL
GASTEIGER

@<TRIPOS>ATOM
      1 N         -10.0465  -18.5942   19.6820 N.ar    1  UNL1       -0.3164
      2 C          -9.8522  -19.7299   18.7215 C.ar    1  UNL1        0.0779
      3 C          -8.5429  -20.3884   19.0413 C.ar    1  UNL1        0.0392
      4 C          -7.9282  -19.6597   20.1994 C.ar    1  UNL1        0.0985
      5 N          -6.6423  -19.8626   20.9445 N.ar    1  UNL1       -0.2423
      6 C          -6.2857  -18.9566   22.0856 C.ar    1  UNL1        0.0989
      7 C          -7.2150  -17.8478   22.4815 C.ar    1  UNL1        0.0206
      8 C          -8.5009  -17.6448   21.7364 C.ar    1  UNL1        0.0203
      9 C          -8.8575  -18.5508   20.5953 C.ar    1  UNL1        0.0782
     10 C          -6.8583  -16.9418   23.6226 C.ar    1  UNL1        0.0014
     11 C          -5.4722  -16.3784   23.7280 C.ar    1  UNL1        0.0023
     12 C          -5.1155  -15.4724   24.8691 C.ar    1  UNL1        0.0293
     13 C          -6.1451  -15.1299   25.9048 C.ar    1  UNL1        0.1361
     14 F          -5.7885  -14.2239   27.0459 F       1  UNL1       -0.2045
     15 C          -7.5313  -15.6933   25.7994 C.ar    1  UNL1        0.0056
     16 C          -8.5609  -15.3508   26.8351 C.3     1  UNL1        0.0334
     17 C          -7.8879  -16.5992   24.6583 C.ar    1  UNL1       -0.0020
     18 C         -11.2234  -17.6650   19.7220 C.3     1  UNL1        0.1937
     19 C         -13.9135  -18.1005   24.2448 C.3     1  UNL1        0.0967
     20 C         -13.1101  -17.5344   23.1116 C.ar    1  UNL1        0.2267
     21 N         -12.6381  -16.1160   22.9877 N.ar    1  UNL1       -0.1116
     22 N         -11.8739  -15.9923   21.7030 N.ar    1  UNL1       -0.1096
     23 C         -11.8736  -17.3342   21.0328 C.ar    1  UNL1        0.2489
     24 O         -12.6376  -18.2873   21.9033 O.2     1  UNL1       -0.4213
@<TRIPOS>BOND
     1    19    20    1
     2    20    21   ar
     3    21    22   ar
     4    22    23   ar
     5    23    18    1
     6    18     1    1
     7     1     2   ar
     8     2     3   ar
     9     3     4   ar
    10     4     5   ar
    11     5     6   ar
    12     6     7   ar
    13     7    10    1
    14    10    11   ar
    15    11    12   ar
    16    12    13   ar
    17    13    14    1
    18    13    15   ar
    19    15    16    1
    20    15    17   ar
    21     7     8   ar
    22     8     9   ar
    23    23    24   ar
    24    24    20   ar
    25     9     1   ar
    26     9     4   ar
    27    17    10   ar
@<TRIPOS>MOLECULE
*****
 24 27 0 0 0
SMALL
GASTEIGER

@<TRIPOS>ATOM
      1 N          -5.4757  -15.4111   24.6430 N.ar    1  UNL1       -0.3164
      2 C          -5.3695  -15.0371   26.0917 C.ar    1  UNL1        0.0779
      3 C          -6.6488  -15.4329   26.7675 C.ar    1  UNL1        0.0392
      4 C          -7.5457  -16.0514   25.7365 C.ar    1  UNL1        0.0985
      5 N          -8.9288  -16.6252   25.8237 N.ar    1  UNL1       -0.2423
      6 C          -9.5870  -17.1854   24.5977 C.ar    1  UNL1        0.0989
      7 C          -8.8620  -17.1720   23.2847 C.ar    1  UNL1        0.0206
      8 C          -7.4788  -16.5982   23.1975 C.ar    1  UNL1        0.0203
      9 C          -6.8207  -16.0380   24.4234 C.ar    1  UNL1        0.0782
     10 C          -9.5202  -17.7323   22.0587 C.ar    1  UNL1        0.0014
     11 C         -10.9617  -17.4288   21.7763 C.ar    1  UNL1        0.0023
     12 C         -11.6200  -17.9891   20.5504 C.ar    1  UNL1        0.0293
     13 C         -10.8366  -18.8529   19.6069 C.ar    1  UNL1        0.1361
     14 F         -11.4947  -19.4132   18.3810 F       1  UNL1       -0.2045
     15 C          -9.3950  -19.1564   19.8894 C.ar    1  UNL1        0.0056
     16 C          -8.6116  -20.0202   18.9459 C.3     1  UNL1        0.0334
     17 C          -8.7368  -18.5961   21.1152 C.ar    1  UNL1       -0.0020
     18 C          -4.4220  -15.1960   23.5973 C.3     1  UNL1        0.1937
     19 C          -1.2906  -18.1322   20.5225 C.3     1  UNL1        0.0967
     20 C          -2.2961  -17.7231   21.5577 C.ar    1  UNL1        0.2267
     21 N          -3.0619  -18.6478   22.4568 N.ar    1  UNL1       -0.1116
     22 N          -3.9515  -17.8137   23.3303 N.ar    1  UNL1       -0.1096
     23 C          -3.7354  -16.3735   22.9710 C.ar    1  UNL1        0.2489
     24 O          -2.7124  -16.3175   21.8754 O.2     1  UNL1       -0.4213
@<TRIPOS>BOND
     1    19    20    1
     2    20    21   ar
     3    21    22   ar
     4    22    23   ar
     5    23    18    1
     6    18     1    1
     7     1     2   ar
     8     2     3   ar
     9     3     4   ar
    10     4     5   ar
    11     5     6   ar
    12     6     7   ar
    13     7    10    1
    14    10    11   ar
    15    11    12   ar
    16    12    13   ar
    17    13    14    1
    18    13    15   ar
    19    15    16    1
    20    15    17   ar
    21     7     8   ar
    22     8     9   ar
    23    23    24   ar
    24    24    20   ar
    25     9     1   ar
    26     9     4   ar
    27    17    10   ar
@<TRIPOS>MOLECULE
*****
 24 27 0 0 0
SMALL
GASTEIGER

@<TRIPOS>ATOM
      1 N          -9.1993  -17.4015   21.9630 N.ar    1  UNL1       -0.3164
      2 C         -10.4884  -18.1563   21.8277 C.ar    1  UNL1        0.0779
      3 C         -10.1797  -19.4981   21.2325 C.ar    1  UNL1        0.0392
      4 C          -8.6997  -19.5725   20.9999 C.ar    1  UNL1        0.0985
      5 N          -7.8255  -20.6528   20.4354 N.ar    1  UNL1       -0.2423
      6 C          -6.3454  -20.4374   20.3224 C.ar    1  UNL1        0.0989
      7 C          -5.7395  -19.1416   20.7739 C.ar    1  UNL1        0.0206
      8 C          -6.6136  -18.0613   21.3384 C.ar    1  UNL1        0.0203
      9 C          -8.0937  -18.2768   21.4514 C.ar    1  UNL1        0.0782
     10 C          -4.2593  -18.9262   20.6608 C.ar    1  UNL1        0.0014
     11 C          -3.3688  -19.2060   21.8350 C.ar    1  UNL1        0.0023
     12 C          -1.8886  -18.9905   21.7219 C.ar    1  UNL1        0.0293
     13 C          -1.2990  -18.4953   20.4346 C.ar    1  UNL1        0.1361
     14 F           0.1811  -18.2798   20.3215 F       1  UNL1       -0.2045
     15 C          -2.1896  -18.2154   19.2604 C.ar    1  UNL1        0.0056
     16 C          -1.5999  -17.7202   17.9732 C.3     1  UNL1        0.0334
     17 C          -3.6697  -18.4309   19.3735 C.ar    1  UNL1       -0.0020
     18 C          -9.0430  -16.0149   22.5133 C.3     1  UNL1        0.1937
     19 C          -6.7241  -15.5823   27.2374 C.3     1  UNL1        0.0967
     20 C          -6.9641  -15.5445   25.7572 C.ar    1  UNL1        0.2267
     21 N          -5.9783  -15.1064   24.7151 N.ar    1  UNL1       -0.1116
     22 N          -6.6370  -15.2293   23.3731 N.ar    1  UNL1       -0.1096
     23 C          -8.0300  -15.7433   23.5858 C.ar    1  UNL1        0.2489
     24 O          -8.2322  -15.9381   25.0593 O.2     1  UNL1       -0.4213
@<TRIPOS>BOND
     1    19    20    1
     2    20    21   ar
     3    21    22   ar
     4    22    23   ar
     5    23    18    1
     6    18     1    1
     7     1     2   ar
     8     2     3   ar
     9     3     4   ar
    10     4     5   ar
    11     5     6   ar
    12     6     7   ar
    13     7    10    1
    14    10    11   ar
    15    11    12   ar
    16    12    13   ar
    17    13    14    1
    18    13    15   ar
    19    15    16    1
    20    15    17   ar
    21     7     8   ar
    22     8     9   ar
    23    23    24   ar
    24    24    20   ar
    25     9     1   ar
    26     9     4   ar
    27    17    10   ar
@<TRIPOS>MOLECULE
*****
 24 27 0 0 0
SMALL
GASTEIGER

@<TRIPOS>ATOM
      1 N         -10.7476  -16.6136   22.7722 N.ar    1  UNL1       -0.3164
      2 C         -12.1198  -16.7248   22.1767 C.ar    1  UNL1        0.0779
      3 C         -12.0501  -17.6877   21.0287 C.ar    1  UNL1        0.0392
      4 C         -10.6349  -18.1716   20.9147 C.ar    1  UNL1        0.0985
      5 N          -9.9753  -19.1309   19.9689 N.ar    1  UNL1       -0.2423
      6 C          -8.5106  -19.4263   20.1007 C.ar    1  UNL1        0.0989
      7 C          -7.7056  -18.7625   21.1783 C.ar    1  UNL1        0.0206
      8 C          -8.3652  -17.8032   22.1241 C.ar    1  UNL1        0.0203
      9 C          -9.8299  -17.5077   21.9923 C.ar    1  UNL1        0.0782
     10 C          -6.2408  -19.0580   21.3101 C.ar    1  UNL1        0.0014
     11 C          -5.5141  -18.6999   22.5725 C.ar    1  UNL1        0.0023
     12 C          -4.0493  -18.9954   22.7042 C.ar    1  UNL1        0.0293
     13 C          -3.3114  -19.6489   21.5736 C.ar    1  UNL1        0.1361
     14 F          -1.8468  -19.9444   21.7054 F       1  UNL1       -0.2045
     15 C          -4.0382  -20.0070   20.3112 C.ar    1  UNL1        0.0056
     16 C          -3.3003  -20.6606   19.1806 C.3     1  UNL1        0.0334
     17 C          -5.5029  -19.7115   20.1795 C.ar    1  UNL1       -0.0020
     18 C         -10.3610  -15.7584   23.9423 C.3     1  UNL1        0.1937
     19 C          -5.0973  -15.3414   23.9714 C.3     1  UNL1        0.0967
     20 C          -6.5157  -15.5317   24.4205 C.ar    1  UNL1        0.2267
     21 N          -6.9667  -15.8075   25.8243 N.ar    1  UNL1       -0.1116
     22 N          -8.4619  -15.9260   25.8160 N.ar    1  UNL1       -0.1096
     23 C          -8.9352  -15.7234   24.4071 C.ar    1  UNL1        0.2489
     24 O          -7.7324  -15.4798   23.5447 O.2     1  UNL1       -0.4213
@<TRIPOS>BOND
     1    19    20    1
     2    20    21   ar
     3    21    22   ar
     4    22    23   ar
     5    23    18    1
     6    18     1    1
     7     1     2   ar
     8     2     3   ar
     9     3     4   ar
    10     4     5   ar
    11     5     6   ar
    12     6     7   ar
    13     7    10    1
    14    10    11   ar
    15    11    12   ar
    16    12    13   ar
    17    13    14    1
    18    13    15   ar
    19    15    16    1
    20    15    17   ar
    21     7     8   ar
    22     8     9   ar
    23    23    24   ar
    24    24    20   ar
    25     9     1   ar
    26     9     4   ar
    27    17    10   ar
@<TRIPOS>MOLECULE
*****
 24 27 0 0 0
SMALL
GASTEIGER

@<TRIPOS>ATOM
      1 N         -11.8709   -7.2788   17.4965 N.ar    1  UNL1       -0.3164
      2 C         -10.6499   -8.1270   17.6957 C.ar    1  UNL1        0.0779
      3 C          -9.5801   -7.2651   18.2979 C.ar    1  UNL1        0.0392
      4 C         -10.1399   -5.8843   18.4709 C.ar    1  UNL1        0.0985
      5 N          -9.5434   -4.6204   19.0155 N.ar    1  UNL1       -0.2423
      6 C         -10.3626   -3.3649   19.0647 C.ar    1  UNL1        0.0989
      7 C         -11.7785   -3.3733   18.5695 C.ar    1  UNL1        0.0206
      8 C         -12.3750   -4.6372   18.0249 C.ar    1  UNL1        0.0203
      9 C         -11.5558   -5.8927   17.9757 C.ar    1  UNL1        0.0782
     10 C         -12.5978   -2.1177   18.6187 C.ar    1  UNL1        0.0014
     11 C         -12.0090   -0.8192   18.1527 C.ar    1  UNL1        0.0023
     12 C         -12.8283    0.4363   18.2020 C.ar    1  UNL1        0.0293
     13 C         -14.2364    0.3933   18.7173 C.ar    1  UNL1        0.1361
     14 F         -15.0557    1.6488   18.7666 F       1  UNL1       -0.2045
     15 C         -14.8251   -0.9053   19.1834 C.ar    1  UNL1        0.0056
     16 C         -16.2332   -0.9483   19.6987 C.3     1  UNL1        0.0334
     17 C         -14.0058   -2.1608   19.1341 C.ar    1  UNL1       -0.0020
     18 C         -13.1778   -7.7363   16.9195 C.3     1  UNL1        0.1937
     19 C         -17.5213   -7.6285   19.9201 C.3     1  UNL1        0.0967
     20 C         -16.2901   -8.1066   19.2091 C.ar    1  UNL1        0.2267
     21 N         -15.7312   -9.4979   19.2524 N.ar    1  UNL1       -0.1116
     22 N         -14.4973   -9.5285   18.4001 N.ar    1  UNL1       -0.1096
     23 C         -14.2936   -8.1561   17.8299 C.ar    1  UNL1        0.2489
     24 O         -15.4016   -7.2774   18.3299 O.2     1  UNL1       -0.4213
@<TRIPOS>BOND
     1    19    20    1
     2    20    21   ar
     3    21    22   ar
     4    22    23   ar
     5    23    18    1
     6    18     1    1
     7     1     2   ar
     8     2     3   ar
     9     3     4   ar
    10     4     5   ar
    11     5     6   ar
    12     6     7   ar
    13     7    10    1
    14    10    11   ar
    15    11    12   ar
    16    12    13   ar
    17    13    14    1
    18    13    15   ar
    19    15    16    1
    20    15    17   ar
    21     7     8   ar
    22     8     9   ar
    23    23    24   ar
    24    24    20   ar
    25     9     1   ar
    26     9     4   ar
    27    17    10   ar
