@<TRIPOS>MOLECULE
*****
 34 37 0 0 0
SMALL
GASTEIGER

@<TRIPOS>ATOM
      1 N           6.9195   -2.5260   22.2497 N.am    1  UNL1       -0.2438
      2 C           6.0726   -1.2957   22.1117 C.3     1  UNL1        0.1009
      3 C           4.9965   -1.2391   21.0683 C.3     1  UNL1        0.0662
      4 C           4.7672   -2.4129   20.1629 C.3     1  UNL1        0.1602
      5 O           5.6141   -3.6433   20.3009 O.3     1  UNL1       -0.4374
      6 C           6.6902   -3.6998   21.3443 C.2     1  UNL1        0.4051
      7 O           7.5371   -4.9301   21.4824 O.2     1  UNL1       -0.2262
      8 C           3.7136   -1.4773   19.6484 C.ar    1  UNL1        0.0140
      9 C           3.9393   -0.7227   18.3719 C.ar    1  UNL1        0.0014
     10 C           2.8857    0.2129   17.8573 C.ar    1  UNL1        0.0294
     11 C           1.6064    0.3937   18.6194 C.ar    1  UNL1        0.1401
     12 F           0.5528    1.3293   18.1049 F       1  UNL1       -0.2042
     13 C           1.3807   -0.3609   19.8959 C.ar    1  UNL1        0.0294
     14 C           2.4343   -1.2965   20.4105 C.ar    1  UNL1        0.0014
     15 C           9.4381   -2.6056   22.8824 C.3     1  UNL1        0.0265
     16 C           7.9956   -2.5826   23.2931 C.3     1  UNL1        0.1011
     17 C           7.6293   -2.6161   24.7474 C.ar    1  UNL1       -0.0042
     18 C           8.1964   -1.5941   25.6874 C.ar    1  UNL1       -0.0027
     19 C           7.8300   -1.6277   27.1416 C.ar    1  UNL1       -0.0002
     20 C           6.8965   -2.6833   27.6557 C.ar    1  UNL1        0.0021
     21 C           6.3295   -3.7054   26.7156 C.ar    1  UNL1       -0.0002
     22 C           6.6958   -3.6718   25.2615 C.ar    1  UNL1       -0.0027
     23 C           6.5302   -2.7169   29.1099 C.ar    1  UNL1        0.0276
     24 C           5.7384   -1.5930   29.7100 C.ar    1  UNL1        0.0045
     25 C           5.3721   -1.6266   31.1642 C.ar    1  UNL1        0.0298
     26 C           5.7975   -2.7840   32.0183 C.ar    1  UNL1        0.1424
     27 F           5.4312   -2.8176   33.4725 F       1  UNL1       -0.2041
     28 C           6.5893   -3.9078   31.4182 C.ar    1  UNL1        0.0592
     29 C           6.9556   -3.8742   29.9640 C.ar    1  UNL1        0.1423
     30 F           7.7474   -4.9981   29.3638 F       1  UNL1       -0.2041
     31 C           4.1720   -3.2617   19.0788 C.3     1  UNL1        0.0762
     32 C           3.7631   -4.6748   19.3720 C.3     1  UNL1        0.1411
     33 O           4.6601   -5.8117   18.9810 O.3     1  UNL1       -0.3819
     34 H           4.7211   -5.8576   18.0140 H       1  UNL1        0.2104
@<TRIPOS>BOND
     1    16    15    1
     2    16    17    1
     3    17    18   ar
     4    18    19   ar
     5    19    20   ar
     6    20    23    1
     7    23    24   ar
     8    24    25   ar
     9    25    26   ar
    10    26    27    1
    11    26    28   ar
    12    28    29   ar
    13    29    30    1
    14    20    21   ar
    15    21    22   ar
    16    16     1    1
    17     1     2    1
    18     2     3    1
    19     3     4    1
    20     4    31    1
    21    31    32    1
    22    32    33    1
    23     4     8    1
    24     8     9   ar
    25     9    10   ar
    26    10    11   ar
    27    11    12    1
    28    11    13   ar
    29    13    14   ar
    30     4     5    1
    31     5     6    1
    32     6     7    2
    33    22    17   ar
    34     6     1   am
    35    29    23   ar
    36    14     8   ar
    37    33    34    1
@<TRIPOS>MOLECULE
*****
 34 37 0 0 0
SMALL
GASTEIGER

@<TRIPOS>ATOM
      1 N           2.4472    1.1701   21.6995 N.am    1  UNL1       -0.2438
      2 C           2.4126   -0.3195   21.8721 C.3     1  UNL1        0.1009
      3 C           3.1440   -1.2037   20.9060 C.3     1  UNL1        0.0662
      4 C           3.9100   -0.5982   19.7673 C.3     1  UNL1        0.1602
      5 O           3.9446    0.8915   19.5947 O.3     1  UNL1       -0.4374
      6 C           3.2132    1.7756   20.5608 C.2     1  UNL1        0.4051
      7 O           3.2478    3.2652   20.3883 O.2     1  UNL1       -0.2262
      8 C           4.1731   -2.0531   19.5138 C.ar    1  UNL1        0.0140
      9 C           3.0264   -2.9980   19.3089 C.ar    1  UNL1        0.0014
     10 C           3.2895   -4.4529   19.0555 C.ar    1  UNL1        0.0294
     11 C           4.6994   -4.9626   19.0069 C.ar    1  UNL1        0.1401
     12 F           4.9626   -6.4175   18.7534 F       1  UNL1       -0.2042
     13 C           5.8461   -4.0177   19.2117 C.ar    1  UNL1        0.0294
     14 C           5.5830   -2.5628   19.4652 C.ar    1  UNL1        0.0014
     15 C           2.3561    2.4330   23.9681 C.3     1  UNL1        0.0265
     16 C           1.7158    2.0542   22.6657 C.3     1  UNL1        0.1011
     17 C           0.3441    2.5596   22.3292 C.ar    1  UNL1       -0.0042
     18 C          -0.4819    3.2423   23.3787 C.ar    1  UNL1       -0.0027
     19 C          -1.8536    3.7476   23.0422 C.ar    1  UNL1       -0.0002
     20 C          -2.3991    3.5702   21.6563 C.ar    1  UNL1        0.0021
     21 C          -1.5731    2.8875   20.6068 C.ar    1  UNL1       -0.0002
     22 C          -0.2015    2.3822   20.9433 C.ar    1  UNL1       -0.0027
     23 C          -3.7708    4.0755   21.3199 C.ar    1  UNL1        0.0276
     24 C          -3.9510    5.0822   20.2225 C.ar    1  UNL1        0.0045
     25 C          -5.3227    5.5875   19.8861 C.ar    1  UNL1        0.0298
     26 C          -6.5142    5.0862   20.6470 C.ar    1  UNL1        0.1424
     27 F          -7.8859    5.5915   20.3106 F       1  UNL1       -0.2041
     28 C          -6.3340    4.0795   21.7444 C.ar    1  UNL1        0.0592
     29 C          -4.9623    3.5742   22.0808 C.ar    1  UNL1        0.1423
     30 F          -4.7821    2.5675   23.1781 F       1  UNL1       -0.2041
     31 C           4.7674   -0.4980   18.5405 C.3     1  UNL1        0.0762
     32 C           4.1487   -0.1480   17.2197 C.3     1  UNL1        0.1411
     33 O           3.7569   -1.2353   16.2634 O.3     1  UNL1       -0.3819
     34 H           4.5525   -1.6953   15.9532 H       1  UNL1        0.2104
@<TRIPOS>BOND
     1    16    15    1
     2    16    17    1
     3    17    18   ar
     4    18    19   ar
     5    19    20   ar
     6    20    23    1
     7    23    24   ar
     8    24    25   ar
     9    25    26   ar
    10    26    27    1
    11    26    28   ar
    12    28    29   ar
    13    29    30    1
    14    20    21   ar
    15    21    22   ar
    16    16     1    1
    17     1     2    1
    18     2     3    1
    19     3     4    1
    20     4    31    1
    21    31    32    1
    22    32    33    1
    23     4     8    1
    24     8     9   ar
    25     9    10   ar
    26    10    11   ar
    27    11    12    1
    28    11    13   ar
    29    13    14   ar
    30     4     5    1
    31     5     6    1
    32     6     7    2
    33    22    17   ar
    34     6     1   am
    35    29    23   ar
    36    14     8   ar
    37    33    34    1
@<TRIPOS>MOLECULE
*****
 34 37 0 0 0
SMALL
GASTEIGER

@<TRIPOS>ATOM
      1 N          -1.0134    4.2294   18.8011 N.am    1  UNL1       -0.2438
      2 C          -1.2005    4.2779   20.2886 C.3     1  UNL1        0.1009
      3 C          -2.5798    4.3862   20.8680 C.3     1  UNL1        0.0662
      4 C          -3.7721    4.4461   19.9599 C.3     1  UNL1        0.1602
      5 O          -3.5852    4.3976   18.4723 O.3     1  UNL1       -0.4374
      6 C          -2.2058    4.2893   17.8929 C.2     1  UNL1        0.4051
      7 O          -2.0188    4.2408   16.4054 O.2     1  UNL1       -0.2262
      8 C          -4.4557    4.5248   21.2928 C.ar    1  UNL1        0.0140
      9 C          -5.2230    5.7571   21.6705 C.ar    1  UNL1        0.0014
     10 C          -5.9065    5.8359   23.0034 C.ar    1  UNL1        0.0294
     11 C          -5.8228    4.6823   23.9585 C.ar    1  UNL1        0.1401
     12 F          -6.5063    4.7611   25.2914 F       1  UNL1       -0.2042
     13 C          -5.0555    3.4500   23.5808 C.ar    1  UNL1        0.0294
     14 C          -4.3719    3.3712   22.2478 C.ar    1  UNL1        0.0014
     15 C           0.9370    5.2579   17.4271 C.3     1  UNL1        0.0265
     16 C           0.3659    4.1211   18.2218 C.3     1  UNL1        0.1011
     17 C           1.1741    2.8759   18.4370 C.ar    1  UNL1       -0.0042
     18 C           0.4850    1.5545   18.6074 C.ar    1  UNL1       -0.0027
     19 C           1.2932    0.3094   18.8227 C.ar    1  UNL1       -0.0002
     20 C           2.7906    0.3856   18.8676 C.ar    1  UNL1        0.0021
     21 C           3.4798    1.7070   18.6972 C.ar    1  UNL1       -0.0002
     22 C           2.6715    2.9521   18.4819 C.ar    1  UNL1       -0.0027
     23 C           3.5989   -0.8596   19.0829 C.ar    1  UNL1        0.0276
     24 C           3.6978   -1.4619   20.4530 C.ar    1  UNL1        0.0045
     25 C           4.5061   -2.7072   20.6683 C.ar    1  UNL1        0.0298
     26 C           5.2153   -3.3499   19.5134 C.ar    1  UNL1        0.1424
     27 F           6.0235   -4.5951   19.7286 F       1  UNL1       -0.2041
     28 C           5.1163   -2.7475   18.1432 C.ar    1  UNL1        0.0592
     29 C           4.3081   -1.5024   17.9280 C.ar    1  UNL1        0.1423
     30 F           4.2091   -0.8999   16.5578 F       1  UNL1       -0.2041
     31 C          -5.2019    4.5333   19.5146 C.3     1  UNL1        0.0762
     32 C          -5.8766    3.3331   18.9194 C.3     1  UNL1        0.1411
     33 O          -7.3371    3.3846   18.5810 O.3     1  UNL1       -0.3819
     34 H          -7.8549    3.4743   19.3962 H       1  UNL1        0.2104
@<TRIPOS>BOND
     1    16    15    1
     2    16    17    1
     3    17    18   ar
     4    18    19   ar
     5    19    20   ar
     6    20    23    1
     7    23    24   ar
     8    24    25   ar
     9    25    26   ar
    10    26    27    1
    11    26    28   ar
    12    28    29   ar
    13    29    30    1
    14    20    21   ar
    15    21    22   ar
    16    16     1    1
    17     1     2    1
    18     2     3    1
    19     3     4    1
    20     4    31    1
    21    31    32    1
    22    32    33    1
    23     4     8    1
    24     8     9   ar
    25     9    10   ar
    26    10    11   ar
    27    11    12    1
    28    11    13   ar
    29    13    14   ar
    30     4     5    1
    31     5     6    1
    32     6     7    2
    33    22    17   ar
    34     6     1   am
    35    29    23   ar
    36    14     8   ar
    37    33    34    1
@<TRIPOS>MOLECULE
*****
 34 37 0 0 0
SMALL
GASTEIGER

@<TRIPOS>ATOM
      1 N           3.2879    1.0933   23.1245 N.am    1  UNL1       -0.2438
      2 C           3.2033   -0.4031   23.0664 C.3     1  UNL1        0.1009
      3 C           3.6927   -1.1354   21.8522 C.3     1  UNL1        0.0662
      4 C           4.2668   -0.3713   20.6962 C.3     1  UNL1        0.1602
      5 O           4.3514    1.1253   20.7542 O.3     1  UNL1       -0.4374
      6 C           3.8619    1.8576   21.9684 C.2     1  UNL1        0.4051
      7 O           3.9466    3.3540   22.0265 O.2     1  UNL1       -0.2262
      8 C           4.3973   -1.7712   20.1735 C.ar    1  UNL1        0.0140
      9 C           3.1822   -2.5097   19.6957 C.ar    1  UNL1        0.0014
     10 C           3.3127   -3.9096   19.1730 C.ar    1  UNL1        0.0294
     11 C           4.6583   -4.5710   19.1282 C.ar    1  UNL1        0.1401
     12 F           4.7888   -5.9710   18.6056 F       1  UNL1       -0.2042
     13 C           5.8733   -3.8326   19.6060 C.ar    1  UNL1        0.0294
     14 C           5.7428   -2.4326   20.1287 C.ar    1  UNL1        0.0014
     15 C           3.7428    2.1264   25.4645 C.3     1  UNL1        0.0265
     16 C           2.7984    1.8256   24.3386 C.3     1  UNL1        0.1011
     17 C           1.3645    2.2571   24.4269 C.ar    1  UNL1       -0.0042
     18 C           0.4631    1.6566   25.4647 C.ar    1  UNL1       -0.0027
     19 C          -0.9707    2.0881   25.5529 C.ar    1  UNL1       -0.0002
     20 C          -1.5032    3.1201   24.6034 C.ar    1  UNL1        0.0021
     21 C          -0.6019    3.7205   23.5657 C.ar    1  UNL1       -0.0002
     22 C           0.8320    3.2890   23.4774 C.ar    1  UNL1       -0.0027
     23 C          -2.9372    3.5515   24.6917 C.ar    1  UNL1        0.0276
     24 C          -3.5202    3.9508   26.0148 C.ar    1  UNL1        0.0045
     25 C          -4.9541    4.3823   26.1031 C.ar    1  UNL1        0.0298
     26 C          -5.8050    4.4145   24.8682 C.ar    1  UNL1        0.1424
     27 F          -7.2389    4.8459   24.9564 F       1  UNL1       -0.2041
     28 C          -5.2219    4.0152   23.5450 C.ar    1  UNL1        0.0592
     29 C          -3.7881    3.5837   23.4568 C.ar    1  UNL1        0.1423
     30 F          -3.2050    3.1844   22.1336 F       1  UNL1       -0.2041
     31 C           4.8862   -0.0933   19.3586 C.3     1  UNL1        0.0762
     32 C           4.1807    0.7924   18.3749 C.3     1  UNL1        0.1411
     33 O           2.6826    0.7836   18.2976 O.3     1  UNL1       -0.3819
     34 H           2.3803   -0.0824   17.9822 H       1  UNL1        0.2104
@<TRIPOS>BOND
     1    16    15    1
     2    16    17    1
     3    17    18   ar
     4    18    19   ar
     5    19    20   ar
     6    20    23    1
     7    23    24   ar
     8    24    25   ar
     9    25    26   ar
    10    26    27    1
    11    26    28   ar
    12    28    29   ar
    13    29    30    1
    14    20    21   ar
    15    21    22   ar
    16    16     1    1
    17     1     2    1
    18     2     3    1
    19     3     4    1
    20     4    31    1
    21    31    32    1
    22    32    33    1
    23     4     8    1
    24     8     9   ar
    25     9    10   ar
    26    10    11   ar
    27    11    12    1
    28    11    13   ar
    29    13    14   ar
    30     4     5    1
    31     5     6    1
    32     6     7    2
    33    22    17   ar
    34     6     1   am
    35    29    23   ar
    36    14     8   ar
    37    33    34    1
@<TRIPOS>MOLECULE
*****
 34 37 0 0 0
SMALL
GASTEIGER

@<TRIPOS>ATOM
      1 N          -1.4701    4.1436   21.9451 N.am    1  UNL1       -0.2438
      2 C          -2.1565    4.6435   20.7086 C.3     1  UNL1        0.1009
      3 C          -3.6547    4.6835   20.6467 C.3     1  UNL1        0.0662
      4 C          -4.4665    4.2236   21.8212 C.3     1  UNL1        0.1602
      5 O          -3.7800    3.7236   23.0577 O.3     1  UNL1       -0.4374
      6 C          -2.2818    3.6837   23.1197 C.2     1  UNL1        0.4051
      7 O          -1.5954    3.1838   24.3561 O.2     1  UNL1       -0.2262
      8 C          -5.5677    4.6104   20.8789 C.ar    1  UNL1        0.0140
      9 C          -6.2785    5.9197   21.0532 C.ar    1  UNL1        0.0014
     10 C          -7.3797    6.3065   20.1110 C.ar    1  UNL1        0.0294
     11 C          -7.7700    5.3840   18.9945 C.ar    1  UNL1        0.1401
     12 F          -8.8712    5.7708   18.0523 F       1  UNL1       -0.2042
     13 C          -7.0592    4.0747   18.8202 C.ar    1  UNL1        0.0294
     14 C          -5.9580    3.6878   19.7624 C.ar    1  UNL1        0.0014
     15 C           0.7848    5.2518   22.6063 C.3     1  UNL1        0.0265
     16 C           0.0281    4.1037   22.0071 C.3     1  UNL1        0.1011
     17 C           0.7695    2.9155   21.4698 C.ar    1  UNL1       -0.0042
     18 C           2.2328    3.0227   21.1580 C.ar    1  UNL1       -0.0027
     19 C           2.9742    1.8346   20.6208 C.ar    1  UNL1       -0.0002
     20 C           2.2522    0.5392   20.3953 C.ar    1  UNL1        0.0021
     21 C           0.7890    0.4320   20.7071 C.ar    1  UNL1       -0.0002
     22 C           0.0476    1.6201   21.2443 C.ar    1  UNL1       -0.0027
     23 C           2.9937   -0.6490   19.8580 C.ar    1  UNL1        0.0276
     24 C           3.2996   -1.8109   20.7559 C.ar    1  UNL1        0.0045
     25 C           4.0410   -2.9991   20.2186 C.ar    1  UNL1        0.0298
     26 C           4.4765   -3.0252   18.7835 C.ar    1  UNL1        0.1424
     27 F           5.2179   -4.2133   18.2462 F       1  UNL1       -0.2041
     28 C           4.1706   -1.8631   17.8856 C.ar    1  UNL1        0.0592
     29 C           3.4292   -0.6751   18.4229 C.ar    1  UNL1        0.1423
     30 F           3.1233    0.4870   17.5250 F       1  UNL1       -0.2041
     31 C          -5.6607    3.8979   22.6685 C.3     1  UNL1        0.0762
     32 C          -5.6813    4.2874   24.1168 C.3     1  UNL1        0.1411
     33 O          -5.6054    3.2306   25.1788 O.3     1  UNL1       -0.3819
     34 H          -6.4048    2.6822   25.1468 H       1  UNL1        0.2104
@<TRIPOS>BOND
     1    16    15    1
     2    16    17    1
     3    17    18   ar
     4    18    19   ar
     5    19    20   ar
     6    20    23    1
     7    23    24   ar
     8    24    25   ar
     9    25    26   ar
    10    26    27    1
    11    26    28   ar
    12    28    29   ar
    13    29    30    1
    14    20    21   ar
    15    21    22   ar
    16    16     1    1
    17     1     2    1
    18     2     3    1
    19     3     4    1
    20     4    31    1
    21    31    32    1
    22    32    33    1
    23     4     8    1
    24     8     9   ar
    25     9    10   ar
    26    10    11   ar
    27    11    12    1
    28    11    13   ar
    29    13    14   ar
    30     4     5    1
    31     5     6    1
    32     6     7    2
    33    22    17   ar
    34     6     1   am
    35    29    23   ar
    36    14     8   ar
    37    33    34    1
@<TRIPOS>MOLECULE
*****
 34 37 0 0 0
SMALL
GASTEIGER

@<TRIPOS>ATOM
      1 N           6.1636   -1.7793   29.3511 N.am    1  UNL1       -0.2438
      2 C           6.6663   -2.2119   28.0056 C.3     1  UNL1        0.1009
      3 C           7.0953   -3.6324   27.7864 C.3     1  UNL1        0.0662
      4 C           7.0217   -4.6204   28.9127 C.3     1  UNL1        0.1602
      5 O           6.5190   -4.1879   30.2582 O.3     1  UNL1       -0.4374
      6 C           6.0899   -2.7674   30.4774 C.2     1  UNL1        0.4051
      7 O           5.5873   -2.3348   31.8228 O.2     1  UNL1       -0.2262
      8 C           7.5643   -5.5024   27.8274 C.ar    1  UNL1        0.0140
      9 C           6.6793   -6.5262   27.1805 C.ar    1  UNL1        0.0014
     10 C           7.2219   -7.4083   26.0952 C.ar    1  UNL1        0.0294
     11 C           8.6494   -7.2664   25.6571 C.ar    1  UNL1        0.1401
     12 F           9.1920   -8.1485   24.5719 F       1  UNL1       -0.2042
     13 C           9.5344   -6.2426   26.3041 C.ar    1  UNL1        0.0294
     14 C           8.9918   -5.3606   27.3893 C.ar    1  UNL1        0.0014
     15 C           6.5254    0.5313   30.4824 C.3     1  UNL1        0.0265
     16 C           5.7345   -0.3588   29.5703 C.3     1  UNL1        0.1011
     17 C           4.5144    0.1716   28.8772 C.ar    1  UNL1       -0.0042
     18 C           3.2112   -0.5630   28.9861 C.ar    1  UNL1       -0.0027
     19 C           1.9912   -0.0326   28.2931 C.ar    1  UNL1       -0.0002
     20 C           2.0745    1.2323   27.4913 C.ar    1  UNL1        0.0021
     21 C           3.3777    1.9669   27.3824 C.ar    1  UNL1       -0.0002
     22 C           4.5977    1.4365   28.0754 C.ar    1  UNL1       -0.0027
     23 C           0.8544    1.7627   26.7982 C.ar    1  UNL1        0.0276
     24 C          -0.3125    2.2521   27.6037 C.ar    1  UNL1        0.0045
     25 C          -1.5325    2.7825   26.9107 C.ar    1  UNL1        0.0298
     26 C          -1.5857    2.8234   25.4122 C.ar    1  UNL1        0.1424
     27 F          -2.8056    3.3538   24.7192 F       1  UNL1       -0.2041
     28 C          -0.4187    2.3340   24.6067 C.ar    1  UNL1        0.0592
     29 C           0.8013    1.8037   25.2997 C.ar    1  UNL1        0.1423
     30 F           1.9682    1.3142   24.4943 F       1  UNL1       -0.2041
     31 C           7.1365   -5.9147   29.6620 C.3     1  UNL1        0.0762
     32 C           7.6053   -5.9174   31.0868 C.3     1  UNL1        0.1411
     33 O           6.6275   -6.1620   32.1977 O.3     1  UNL1       -0.3819
     34 H           5.9929   -5.4294   32.2370 H       1  UNL1        0.2104
@<TRIPOS>BOND
     1    16    15    1
     2    16    17    1
     3    17    18   ar
     4    18    19   ar
     5    19    20   ar
     6    20    23    1
     7    23    24   ar
     8    24    25   ar
     9    25    26   ar
    10    26    27    1
    11    26    28   ar
    12    28    29   ar
    13    29    30    1
    14    20    21   ar
    15    21    22   ar
    16    16     1    1
    17     1     2    1
    18     2     3    1
    19     3     4    1
    20     4    31    1
    21    31    32    1
    22    32    33    1
    23     4     8    1
    24     8     9   ar
    25     9    10   ar
    26    10    11   ar
    27    11    12    1
    28    11    13   ar
    29    13    14   ar
    30     4     5    1
    31     5     6    1
    32     6     7    2
    33    22    17   ar
    34     6     1   am
    35    29    23   ar
    36    14     8   ar
    37    33    34    1
@<TRIPOS>MOLECULE
*****
 34 37 0 0 0
SMALL
GASTEIGER

@<TRIPOS>ATOM
      1 N           5.7793   -1.4431   19.7556 N.am    1  UNL1       -0.2438
      2 C           5.8616    0.0245   20.0542 C.3     1  UNL1        0.1009
      3 C           4.6376    0.8837   19.9366 C.3     1  UNL1        0.0662
      4 C           3.3314    0.2752   19.5204 C.3     1  UNL1        0.1602
      5 O           3.2490   -1.1925   19.2218 O.3     1  UNL1       -0.4374
      6 C           4.4729   -2.0517   19.3394 C.2     1  UNL1        0.4051
      7 O           4.3906   -3.5193   19.0408 O.2     1  UNL1       -0.2262
      8 C           2.9091    1.7039   19.6956 C.ar    1  UNL1        0.0140
      9 C           2.9732    2.3440   21.0506 C.ar    1  UNL1        0.0014
     10 C           2.5509    3.7727   21.2258 C.ar    1  UNL1        0.0294
     11 C           2.0646    4.5611   20.0460 C.ar    1  UNL1        0.1401
     12 F           1.6423    5.9897   20.2212 F       1  UNL1       -0.2042
     13 C           2.0005    3.9209   18.6910 C.ar    1  UNL1        0.0294
     14 C           2.4228    2.4922   18.5158 C.ar    1  UNL1        0.0014
     15 C           8.0232   -2.3091   18.7734 C.3     1  UNL1        0.0265
     16 C           7.0032   -2.3022   19.8732 C.3     1  UNL1        0.1011
     17 C           7.2072   -3.1545   21.0907 C.ar    1  UNL1       -0.0042
     18 C           6.1126   -3.2829   22.1082 C.ar    1  UNL1       -0.0027
     19 C           6.3167   -4.1351   23.3256 C.ar    1  UNL1       -0.0002
     20 C           7.6152   -4.8589   23.5254 C.ar    1  UNL1        0.0021
     21 C           8.7097   -4.7304   22.5079 C.ar    1  UNL1       -0.0002
     22 C           8.5057   -3.8782   21.2905 C.ar    1  UNL1       -0.0027
     23 C           7.8192   -5.7111   24.7429 C.ar    1  UNL1        0.0276
     24 C           7.6318   -5.1230   26.1100 C.ar    1  UNL1        0.0045
     25 C           7.8358   -5.9753   27.3275 C.ar    1  UNL1        0.0298
     26 C           8.2271   -7.4156   27.1778 C.ar    1  UNL1        0.1424
     27 F           8.4311   -8.2678   28.3951 F       1  UNL1       -0.2041
     28 C           8.4144   -8.0036   25.8105 C.ar    1  UNL1        0.0592
     29 C           8.2104   -7.1514   24.5932 C.ar    1  UNL1        0.1423
     30 F           8.3978   -7.7395   23.2260 F       1  UNL1       -0.2041
     31 C           1.8784    0.1628   19.1650 C.3     1  UNL1        0.0762
     32 C           0.9441   -0.5968   20.0595 C.3     1  UNL1        0.1411
     33 O          -0.3010    0.0615   20.5758 O.3     1  UNL1       -0.3819
     34 H          -0.0594    0.7873   21.1724 H       1  UNL1        0.2104
@<TRIPOS>BOND
     1    16    15    1
     2    16    17    1
     3    17    18   ar
     4    18    19   ar
     5    19    20   ar
     6    20    23    1
     7    23    24   ar
     8    24    25   ar
     9    25    26   ar
    10    26    27    1
    11    26    28   ar
    12    28    29   ar
    13    29    30    1
    14    20    21   ar
    15    21    22   ar
    16    16     1    1
    17     1     2    1
    18     2     3    1
    19     3     4    1
    20     4    31    1
    21    31    32    1
    22    32    33    1
    23     4     8    1
    24     8     9   ar
    25     9    10   ar
    26    10    11   ar
    27    11    12    1
    28    11    13   ar
    29    13    14   ar
    30     4     5    1
    31     5     6    1
    32     6     7    2
    33    22    17   ar
    34     6     1   am
    35    29    23   ar
    36    14     8   ar
    37    33    34    1
@<TRIPOS>MOLECULE
*****
 34 37 0 0 0
SMALL
GASTEIGER

@<TRIPOS>ATOM
      1 N          -0.0959    3.3750   24.1430 N.am    1  UNL1       -0.2438
      2 C          -0.8797    4.0110   23.0334 C.3     1  UNL1        0.1009
      3 C          -2.3581    4.2167   23.1818 C.3     1  UNL1        0.0662
      4 C          -3.0527    3.7864   24.4397 C.3     1  UNL1        0.1602
      5 O          -2.2689    3.1504   25.5493 O.3     1  UNL1       -0.4374
      6 C          -0.7905    2.9447   25.4010 C.2     1  UNL1        0.4051
      7 O          -0.0067    2.3087   26.5105 O.2     1  UNL1       -0.2262
      8 C          -4.2184    4.3397   23.6747 C.ar    1  UNL1        0.0140
      9 C          -4.3303    5.8176   23.4436 C.ar    1  UNL1        0.0014
     10 C          -5.4960    6.3709   22.6786 C.ar    1  UNL1        0.0294
     11 C          -6.5495    5.4462   22.1447 C.ar    1  UNL1        0.1401
     12 F          -7.7152    5.9995   21.3797 F       1  UNL1       -0.2042
     13 C          -6.4376    3.9684   22.3757 C.ar    1  UNL1        0.0294
     14 C          -5.2719    3.4151   23.1407 C.ar    1  UNL1        0.0014
     15 C           2.3403    4.1739   24.5632 C.3     1  UNL1        0.0265
     16 C           1.3825    3.1693   23.9947 C.3     1  UNL1        0.1011
     17 C           1.9031    1.9588   23.2777 C.ar    1  UNL1       -0.0042
     18 C           2.0313    0.6535   24.0055 C.ar    1  UNL1       -0.0027
     19 C           2.5519   -0.5568   23.2885 C.ar    1  UNL1       -0.0002
     20 C           2.9443   -0.4618   21.8439 C.ar    1  UNL1        0.0021
     21 C           2.8161    0.8435   21.1162 C.ar    1  UNL1       -0.0002
     22 C           2.2955    2.0538   21.8331 C.ar    1  UNL1       -0.0027
     23 C           3.4649   -1.6723   21.1269 C.ar    1  UNL1        0.0276
     24 C           2.9843   -1.9878   19.7415 C.ar    1  UNL1        0.0045
     25 C           3.5049   -3.1982   19.0246 C.ar    1  UNL1        0.0298
     26 C           4.5061   -4.0931   19.6932 C.ar    1  UNL1        0.1424
     27 F           5.0267   -5.3034   18.9763 F       1  UNL1       -0.2041
     28 C           4.9866   -3.7774   21.0787 C.ar    1  UNL1        0.0592
     29 C           4.4660   -2.5671   21.7955 C.ar    1  UNL1        0.1423
     30 F           4.9466   -2.2515   23.1810 F       1  UNL1       -0.2041
     31 C          -4.1522    3.5483   25.4319 C.3     1  UNL1        0.0762
     32 C          -3.9756    3.9662   26.8616 C.3     1  UNL1        0.1411
     33 O          -4.8393    5.0484   27.4388 O.3     1  UNL1       -0.3819
     34 H          -4.6414    5.8896   26.9982 H       1  UNL1        0.2104
@<TRIPOS>BOND
     1    16    15    1
     2    16    17    1
     3    17    18   ar
     4    18    19   ar
     5    19    20   ar
     6    20    23    1
     7    23    24   ar
     8    24    25   ar
     9    25    26   ar
    10    26    27    1
    11    26    28   ar
    12    28    29   ar
    13    29    30    1
    14    20    21   ar
    15    21    22   ar
    16    16     1    1
    17     1     2    1
    18     2     3    1
    19     3     4    1
    20     4    31    1
    21    31    32    1
    22    32    33    1
    23     4     8    1
    24     8     9   ar
    25     9    10   ar
    26    10    11   ar
    27    11    12    1
    28    11    13   ar
    29    13    14   ar
    30     4     5    1
    31     5     6    1
    32     6     7    2
    33    22    17   ar
    34     6     1   am
    35    29    23   ar
    36    14     8   ar
    37    33    34    1
@<TRIPOS>MOLECULE
*****
 34 37 0 0 0
SMALL
GASTEIGER

@<TRIPOS>ATOM
      1 N           2.7787    1.0535   30.6269 N.am    1  UNL1       -0.2438
      2 C           2.7949   -0.4112   30.9499 C.3     1  UNL1        0.1009
      3 C           4.0818   -1.1791   30.8864 C.3     1  UNL1        0.0662
      4 C           5.3527   -0.4823   30.4998 C.3     1  UNL1        0.1602
      5 O           5.3366    0.9824   30.1767 O.3     1  UNL1       -0.4374
      6 C           4.0496    1.7504   30.2403 C.2     1  UNL1        0.4051
      7 O           4.0335    3.2150   29.9172 O.2     1  UNL1       -0.2262
      8 C           5.8729   -1.8728   30.7145 C.ar    1  UNL1        0.0140
      9 C           6.3905   -2.6676   29.5524 C.ar    1  UNL1        0.0014
     10 C           6.9108   -4.0580   29.7671 C.ar    1  UNL1        0.0294
     11 C           6.9133   -4.6536   31.1438 C.ar    1  UNL1        0.1401
     12 F           7.4336   -6.0440   31.3585 F       1  UNL1       -0.2042
     13 C           6.3957   -3.8588   32.3058 C.ar    1  UNL1        0.0294
     14 C           5.8755   -2.4683   32.0912 C.ar    1  UNL1        0.0014
     15 C           0.9464    2.2626   32.0163 C.3     1  UNL1        0.0265
     16 C           1.4918    1.8214   30.6905 C.3     1  UNL1        0.1011
     17 C           0.7503    2.1482   29.4281 C.ar    1  UNL1       -0.0042
     18 C           0.5693    3.5783   29.0134 C.ar    1  UNL1       -0.0027
     19 C          -0.1723    3.9049   27.7511 C.ar    1  UNL1       -0.0002
     20 C          -0.7328    2.8015   26.9036 C.ar    1  UNL1        0.0021
     21 C          -0.5518    1.3714   27.3183 C.ar    1  UNL1       -0.0002
     22 C           0.1897    1.0448   28.5806 C.ar    1  UNL1       -0.0027
     23 C          -1.4743    3.1283   25.6412 C.ar    1  UNL1        0.0276
     24 C          -0.7522    3.1311   24.3265 C.ar    1  UNL1        0.0045
     25 C          -1.4937    3.4578   23.0642 C.ar    1  UNL1        0.0298
     26 C          -2.9574    3.7817   23.1166 C.ar    1  UNL1        0.1424
     27 F          -3.6989    4.1085   21.8544 F       1  UNL1       -0.2041
     28 C          -3.6795    3.7789   24.4314 C.ar    1  UNL1        0.0592
     29 C          -2.9380    3.4522   25.6937 C.ar    1  UNL1        0.1423
     30 F          -3.6601    3.4494   27.0085 F       1  UNL1       -0.2041
     31 C           6.8042   -0.2684   30.1877 C.3     1  UNL1        0.0762
     32 C           7.6748    0.4852   31.1489 C.3     1  UNL1        0.1411
     33 O           7.0716    1.1247   32.3643 O.3     1  UNL1       -0.3819
     34 H           6.4750    1.8391   32.0913 H       1  UNL1        0.2104
@<TRIPOS>BOND
     1    16    15    1
     2    16    17    1
     3    17    18   ar
     4    18    19   ar
     5    19    20   ar
     6    20    23    1
     7    23    24   ar
     8    24    25   ar
     9    25    26   ar
    10    26    27    1
    11    26    28   ar
    12    28    29   ar
    13    29    30    1
    14    20    21   ar
    15    21    22   ar
    16    16     1    1
    17     1     2    1
    18     2     3    1
    19     3     4    1
    20     4    31    1
    21    31    32    1
    22    32    33    1
    23     4     8    1
    24     8     9   ar
    25     9    10   ar
    26    10    11   ar
    27    11    12    1
    28    11    13   ar
    29    13    14   ar
    30     4     5    1
    31     5     6    1
    32     6     7    2
    33    22    17   ar
    34     6     1   am
    35    29    23   ar
    36    14     8   ar
    37    33    34    1
