@<TRIPOS>MOLECULE
*****
 31 35 0 0 0
SMALL
GASTEIGER

@<TRIPOS>ATOM
      1 C          -8.3662  -17.9907   21.7158 C.3     1  UNL1        0.2092
      2 C          -6.9483  -18.4127   21.4679 C.ar    1  UNL1        0.2312
      3 N          -6.3098  -18.6128   20.1255 N.ar    1  UNL1       -0.2103
      4 C          -4.8868  -19.0324   20.3470 C.ar    1  UNL1        0.1186
      5 C          -3.7794  -19.3682   19.3927 C.ar    1  UNL1        0.0223
      6 C          -2.4310  -19.7633   19.9177 C.ar    1  UNL1        0.0017
      7 C          -2.1900  -19.8226   21.3970 C.ar    1  UNL1        0.0032
      8 C          -3.2975  -19.4868   22.3513 C.ar    1  UNL1        0.0391
      9 C          -4.6459  -19.0917   21.8263 C.ar    1  UNL1        0.1645
     10 O          -5.9200  -18.7087   22.5191 O.2     1  UNL1       -0.4363
     11 N          -9.4790  -18.9883   21.5874 N.pl3   1  UNL1       -0.3208
     12 H          -9.3032  -19.8740   21.1951 H       1  UNL1        0.1476
     13 C         -12.6276  -18.5160   23.9566 C.ar    1  UNL1        0.1400
     14 C         -13.6207  -17.9331   22.9954 C.ar    1  UNL1        0.0370
     15 C         -13.2332  -17.7019   21.5649 C.ar    1  UNL1        0.0044
     16 C         -11.8526  -18.0536   21.0956 C.ar    1  UNL1        0.0145
     17 C         -10.8595  -18.6366   22.0568 C.ar    1  UNL1        0.0483
     18 C         -11.2470  -18.8678   23.4873 C.ar    1  UNL1        0.0512
     19 C         -14.4203  -18.4770   25.8367 C.3     1  UNL1        0.2525
     20 O         -13.0150  -18.7472   25.3872 O.3     1  UNL1       -0.4714
     21 C          -8.6714  -16.5710   22.0920 C.2     1  UNL1        0.2013
     22 O          -9.6446  -15.7719   21.2771 O.2     1  UNL1       -0.2890
     23 C          -8.0033  -15.9506   23.2831 C.2     1  UNL1        0.0571
     24 C          -6.9715  -14.8623   23.2479 C.2     1  UNL1        0.1014
     25 N          -6.5803  -14.5487   24.6616 N.2     1  UNL1       -0.2477
     26 C          -7.3702  -15.4431   25.5705 C.2     1  UNL1        0.0635
     27 C          -7.4023  -15.5805   27.0638 C.3     1  UNL1        0.0717
     28 C          -8.3138  -16.5843   27.7052 C.2     1  UNL1       -0.0198
     29 C          -9.1933  -17.4507   26.8532 C.2     1  UNL1       -0.0041
     30 C          -9.1612  -17.3133   25.3599 C.2     1  UNL1        0.0010
     31 C          -8.2497  -16.3095   24.7186 C.2     1  UNL1        0.0182
@<TRIPOS>BOND
     1    19    20    1
     2    20    13    1
     3    13    14   ar
     4    14    15   ar
     5    15    16   ar
     6    16    17   ar
     7    17    11    1
     8    11     1    1
     9     1    21    1
    10    21    22    2
    11    21    23    1
    12    23    24    2
    13    24    25    1
    14    25    26    2
    15    26    27    1
    16    27    28    1
    17    28    29    2
    18    29    30    1
    19    30    31    2
    20     1     2    1
    21     2     3   ar
    22     3     4   ar
    23     4     5   ar
    24     5     6   ar
    25     6     7   ar
    26     7     8   ar
    27     8     9   ar
    28     9    10   ar
    29    17    18   ar
    30    18    13   ar
    31    31    23    1
    32    10     2   ar
    33    31    26    1
    34     9     4   ar
    35    11    12    1
@<TRIPOS>MOLECULE
*****
 31 35 0 0 0
SMALL
GASTEIGER

@<TRIPOS>ATOM
      1 C          -7.5597  -18.3949   21.2658 C.3     1  UNL1        0.2092
      2 C          -7.2691  -17.5729   22.4864 C.ar    1  UNL1        0.2312
      3 N          -8.2799  -17.0834   23.4808 N.ar    1  UNL1       -0.2103
      4 C          -7.5522  -16.3041   24.5359 C.ar    1  UNL1        0.1186
      5 C          -8.0308  -15.5883   25.7641 C.ar    1  UNL1        0.0223
      6 C          -7.0490  -14.8804   26.6500 C.ar    1  UNL1        0.0017
      7 C          -5.5886  -14.8883   26.3078 C.ar    1  UNL1        0.0032
      8 C          -5.1100  -15.6041   25.0796 C.ar    1  UNL1        0.0391
      9 C          -6.0918  -16.3120   24.1936 C.ar    1  UNL1        0.1645
     10 O          -5.9168  -17.0962   22.9269 O.2     1  UNL1       -0.4363
     11 N          -6.5575  -18.4635   20.1518 N.pl3   1  UNL1       -0.3208
     12 H          -6.8268  -18.2357   19.2327 H       1  UNL1        0.1476
     13 C          -2.6207  -18.8436   19.8246 C.ar    1  UNL1        0.1400
     14 C          -2.3201  -19.7109   21.0110 C.ar    1  UNL1        0.0370
     15 C          -3.4320  -20.1624   21.9110 C.ar    1  UNL1        0.0044
     16 C          -4.8444  -19.7466   21.6245 C.ar    1  UNL1        0.0145
     17 C          -5.1450  -18.8793   20.4382 C.ar    1  UNL1        0.0483
     18 C          -4.0332  -18.4278   19.5382 C.ar    1  UNL1        0.0512
     19 C          -0.2543  -17.8175   19.5128 C.3     1  UNL1        0.2525
     20 O          -1.5089  -18.3921   18.9247 O.3     1  UNL1       -0.4714
     21 C          -8.8524  -19.1483   21.1591 C.2     1  UNL1        0.2013
     22 O          -9.3166  -19.6562   19.8263 O.2     1  UNL1       -0.2890
     23 C          -9.6809  -19.3936   22.3853 C.2     1  UNL1        0.0571
     24 C          -9.3362  -20.3235   23.5107 C.2     1  UNL1        0.1014
     25 N         -10.4418  -20.2567   24.5222 N.2     1  UNL1       -0.2477
     26 C         -11.4697  -19.2855   24.0220 C.2     1  UNL1        0.0635
     27 C         -12.7732  -18.8180   24.5986 C.3     1  UNL1        0.0717
     28 C         -13.6063  -17.8171   23.8543 C.2     1  UNL1       -0.0198
     29 C         -13.1360  -17.2836   22.5336 C.2     1  UNL1       -0.0041
     30 C         -11.8326  -17.7511   21.9571 C.2     1  UNL1        0.0010
     31 C         -10.9994  -18.7521   22.7013 C.2     1  UNL1        0.0182
@<TRIPOS>BOND
     1    19    20    1
     2    20    13    1
     3    13    14   ar
     4    14    15   ar
     5    15    16   ar
     6    16    17   ar
     7    17    11    1
     8    11     1    1
     9     1    21    1
    10    21    22    2
    11    21    23    1
    12    23    24    2
    13    24    25    1
    14    25    26    2
    15    26    27    1
    16    27    28    1
    17    28    29    2
    18    29    30    1
    19    30    31    2
    20     1     2    1
    21     2     3   ar
    22     3     4   ar
    23     4     5   ar
    24     5     6   ar
    25     6     7   ar
    26     7     8   ar
    27     8     9   ar
    28     9    10   ar
    29    17    18   ar
    30    18    13   ar
    31    31    23    1
    32    10     2   ar
    33    31    26    1
    34     9     4   ar
    35    11    12    1
@<TRIPOS>MOLECULE
*****
 31 35 0 0 0
SMALL
GASTEIGER

@<TRIPOS>ATOM
      1 C          -7.7436  -18.3575   20.9797 C.3     1  UNL1        0.2092
      2 C          -7.5675  -17.6250   22.2768 C.ar    1  UNL1        0.2312
      3 N          -6.3426  -16.8727   22.7053 N.ar    1  UNL1       -0.2103
      4 C          -6.6035  -16.2990   24.0664 C.ar    1  UNL1        0.1186
      5 C          -5.7580  -15.4658   24.9834 C.ar    1  UNL1        0.0223
      6 C          -6.2986  -15.0303   26.3130 C.ar    1  UNL1        0.0017
      7 C          -7.6848  -15.4280   26.7258 C.ar    1  UNL1        0.0032
      8 C          -8.5303  -16.2612   25.8089 C.ar    1  UNL1        0.0391
      9 C          -7.9897  -16.6967   24.4792 C.ar    1  UNL1        0.1645
     10 O          -8.5855  -17.5162   23.3731 O.2     1  UNL1       -0.4363
     11 N          -6.6264  -18.3904   19.9793 N.pl3   1  UNL1       -0.3208
     12 H          -6.7886  -18.1063   19.0507 H       1  UNL1        0.1476
     13 C          -2.7003  -18.9699   19.9762 C.ar    1  UNL1        0.1400
     14 C          -2.5336  -19.7879   21.2224 C.ar    1  UNL1        0.0370
     15 C          -3.7311  -20.1401   22.0543 C.ar    1  UNL1        0.0044
     16 C          -5.0953  -19.6742   21.6398 C.ar    1  UNL1        0.0145
     17 C          -5.2621  -18.8562   20.3936 C.ar    1  UNL1        0.0483
     18 C          -4.0646  -18.5040   19.5618 C.ar    1  UNL1        0.0512
     19 C          -0.3638  -17.8556   19.7542 C.3     1  UNL1        0.2525
     20 O          -1.5028  -18.6177   19.1444 O.3     1  UNL1       -0.4714
     21 C          -9.0369  -19.0570   20.6829 C.2     1  UNL1        0.2013
     22 O          -9.0261  -20.4595   20.1514 O.2     1  UNL1       -0.2890
     23 C         -10.3410  -18.3539   20.9178 C.2     1  UNL1        0.0571
     24 C         -11.0315  -17.4325   19.9564 C.2     1  UNL1        0.1014
     25 N         -12.3007  -16.9579   20.5997 N.2     1  UNL1       -0.2477
     26 C         -12.3946  -17.5860   21.9587 C.2     1  UNL1        0.0635
     27 C         -13.4265  -17.4838   23.0425 C.3     1  UNL1        0.0717
     28 C         -13.2472  -18.2444   24.3228 C.2     1  UNL1       -0.0198
     29 C         -12.0360  -19.1071   24.5194 C.2     1  UNL1       -0.0041
     30 C         -11.0041  -19.2094   23.4356 C.2     1  UNL1        0.0010
     31 C         -11.1834  -18.4488   22.1552 C.2     1  UNL1        0.0182
@<TRIPOS>BOND
     1    19    20    1
     2    20    13    1
     3    13    14   ar
     4    14    15   ar
     5    15    16   ar
     6    16    17   ar
     7    17    11    1
     8    11     1    1
     9     1    21    1
    10    21    22    2
    11    21    23    1
    12    23    24    2
    13    24    25    1
    14    25    26    2
    15    26    27    1
    16    27    28    1
    17    28    29    2
    18    29    30    1
    19    30    31    2
    20     1     2    1
    21     2     3   ar
    22     3     4   ar
    23     4     5   ar
    24     5     6   ar
    25     6     7   ar
    26     7     8   ar
    27     8     9   ar
    28     9    10   ar
    29    17    18   ar
    30    18    13   ar
    31    31    23    1
    32    10     2   ar
    33    31    26    1
    34     9     4   ar
    35    11    12    1
@<TRIPOS>MOLECULE
*****
 31 35 0 0 0
SMALL
GASTEIGER

@<TRIPOS>ATOM
      1 C          -8.2122  -17.6693   21.2226 C.3     1  UNL1        0.2092
      2 C          -6.8095  -18.1932   21.1340 C.ar    1  UNL1        0.2312
      3 N          -5.8933  -18.4602   22.2913 N.ar    1  UNL1       -0.2103
      4 C          -4.5943  -18.9740   21.7451 C.ar    1  UNL1        0.1186
      5 C          -3.3228  -19.4024   22.4158 C.ar    1  UNL1        0.0223
      6 C          -2.1646  -19.8814   21.5917 C.ar    1  UNL1        0.0017
      7 C          -2.2779  -19.9320   20.0968 C.ar    1  UNL1        0.0032
      8 C          -3.5494  -19.5036   19.4261 C.ar    1  UNL1        0.0391
      9 C          -4.7075  -19.0246   20.2502 C.ar    1  UNL1        0.1645
     10 O          -6.0767  -18.5420   19.8725 O.2     1  UNL1       -0.4363
     11 N          -8.4633  -16.2794   21.7275 N.pl3   1  UNL1       -0.3208
     12 H          -8.7701  -15.5785   21.1079 H       1  UNL1        0.1476
     13 C          -6.6592  -15.2785   25.1177 C.ar    1  UNL1        0.1400
     14 C          -7.8141  -15.3129   26.0742 C.ar    1  UNL1        0.0370
     15 C          -9.1854  -15.6694   25.5818 C.ar    1  UNL1        0.0044
     16 C          -9.4018  -15.9915   24.1329 C.ar    1  UNL1        0.0145
     17 C          -8.2468  -15.9572   23.1764 C.ar    1  UNL1        0.0483
     18 C          -6.8755  -15.6007   23.6688 C.ar    1  UNL1        0.0512
     19 C          -4.3509  -16.0007   26.0666 C.3     1  UNL1        0.2525
     20 O          -5.2879  -14.9220   25.6101 O.3     1  UNL1       -0.4714
     21 C          -9.3640  -18.5355   20.8062 C.2     1  UNL1        0.2013
     22 O          -9.1121  -19.8038   20.0461 O.2     1  UNL1       -0.2890
     23 C         -10.7676  -18.1332   21.1499 C.2     1  UNL1        0.0571
     24 C         -11.7344  -17.4389   20.2372 C.2     1  UNL1        0.1014
     25 N         -13.0151  -17.2312   20.9900 N.2     1  UNL1       -0.2477
     26 C         -12.8398  -17.7972   22.3680 C.2     1  UNL1        0.0635
     27 C         -13.7656  -17.8770   23.5455 C.3     1  UNL1        0.0717
     28 C         -13.3023  -18.5143   24.8219 C.2     1  UNL1       -0.0198
     29 C         -11.9132  -19.0718   24.9208 C.2     1  UNL1       -0.0041
     30 C         -10.9875  -18.9920   23.7432 C.2     1  UNL1        0.0010
     31 C         -11.4508  -18.3547   22.4669 C.2     1  UNL1        0.0182
@<TRIPOS>BOND
     1    19    20    1
     2    20    13    1
     3    13    14   ar
     4    14    15   ar
     5    15    16   ar
     6    16    17   ar
     7    17    11    1
     8    11     1    1
     9     1    21    1
    10    21    22    2
    11    21    23    1
    12    23    24    2
    13    24    25    1
    14    25    26    2
    15    26    27    1
    16    27    28    1
    17    28    29    2
    18    29    30    1
    19    30    31    2
    20     1     2    1
    21     2     3   ar
    22     3     4   ar
    23     4     5   ar
    24     5     6   ar
    25     6     7   ar
    26     7     8   ar
    27     8     9   ar
    28     9    10   ar
    29    17    18   ar
    30    18    13   ar
    31    31    23    1
    32    10     2   ar
    33    31    26    1
    34     9     4   ar
    35    11    12    1
@<TRIPOS>MOLECULE
*****
 31 35 0 0 0
SMALL
GASTEIGER

@<TRIPOS>ATOM
      1 C          -7.1998  -18.1621   21.7707 C.3     1  UNL1        0.2092
      2 C          -5.7566  -18.3006   21.3861 C.ar    1  UNL1        0.2312
      3 N          -4.5925  -18.3433   22.3310 N.ar    1  UNL1       -0.2103
      4 C          -3.3406  -18.4898   21.5178 C.ar    1  UNL1        0.1186
      5 C          -1.8956  -18.5858   21.9085 C.ar    1  UNL1        0.0223
      6 C          -0.8409  -18.7297   20.8516 C.ar    1  UNL1        0.0017
      7 C          -1.2313  -18.7776   19.4041 C.ar    1  UNL1        0.0032
      8 C          -2.6764  -18.6816   19.0134 C.ar    1  UNL1        0.0391
      9 C          -3.7310  -18.5377   20.0703 C.ar    1  UNL1        0.1645
     10 O          -5.2242  -18.4208   19.9889 O.2     1  UNL1       -0.4363
     11 N          -8.1044  -19.3581   21.7322 N.pl3   1  UNL1       -0.3208
     12 H          -7.9330  -20.0844   21.0901 H       1  UNL1        0.1476
     13 C         -11.6688  -18.7218   23.3569 C.ar    1  UNL1        0.1400
     14 C         -11.6013  -19.6263   24.5516 C.ar    1  UNL1        0.0370
     15 C         -10.3682  -20.4414   24.8065 C.ar    1  UNL1        0.0044
     16 C          -9.2025  -20.3519   23.8667 C.ar    1  UNL1        0.0145
     17 C          -9.2701  -19.4474   22.6719 C.ar    1  UNL1        0.0483
     18 C         -10.5032  -18.6324   22.4171 C.ar    1  UNL1        0.0512
     19 C         -12.7870  -16.5475   22.4782 C.3     1  UNL1        0.2525
     20 O         -12.9020  -17.9068   23.1020 O.3     1  UNL1       -0.4714
     21 C          -7.7385  -16.8276   22.1939 C.2     1  UNL1        0.2013
     22 O          -8.8264  -16.1710   21.3969 O.2     1  UNL1       -0.2890
     23 C          -7.1892  -16.1498   23.4142 C.2     1  UNL1        0.0571
     24 C          -6.0296  -15.1990   23.4478 C.2     1  UNL1        0.1014
     25 N          -5.8268  -14.7655   24.8694 N.2     1  UNL1       -0.2477
     26 C          -6.8612  -15.4483   25.7143 C.2     1  UNL1        0.0635
     27 C          -7.1451  -15.4015   27.1864 C.3     1  UNL1        0.0717
     28 C          -8.2710  -16.2104   27.7591 C.2     1  UNL1       -0.0198
     29 C          -9.1130  -17.0660   26.8597 C.2     1  UNL1       -0.0041
     30 C          -8.8291  -17.1128   25.3876 C.2     1  UNL1        0.0010
     31 C          -7.7032  -16.3039   24.8149 C.2     1  UNL1        0.0182
@<TRIPOS>BOND
     1    19    20    1
     2    20    13    1
     3    13    14   ar
     4    14    15   ar
     5    15    16   ar
     6    16    17   ar
     7    17    11    1
     8    11     1    1
     9     1    21    1
    10    21    22    2
    11    21    23    1
    12    23    24    2
    13    24    25    1
    14    25    26    2
    15    26    27    1
    16    27    28    1
    17    28    29    2
    18    29    30    1
    19    30    31    2
    20     1     2    1
    21     2     3   ar
    22     3     4   ar
    23     4     5   ar
    24     5     6   ar
    25     6     7   ar
    26     7     8   ar
    27     8     9   ar
    28     9    10   ar
    29    17    18   ar
    30    18    13   ar
    31    31    23    1
    32    10     2   ar
    33    31    26    1
    34     9     4   ar
    35    11    12    1
@<TRIPOS>MOLECULE
*****
 31 35 0 0 0
SMALL
GASTEIGER

@<TRIPOS>ATOM
      1 C          -7.9446  -17.9795   22.3749 C.3     1  UNL1        0.2092
      2 C          -7.7205  -17.1649   23.6144 C.ar    1  UNL1        0.2312
      3 N          -8.7259  -16.9158   24.6994 N.ar    1  UNL1       -0.2103
      4 C          -8.0785  -16.0534   25.7420 C.ar    1  UNL1        0.1186
      5 C          -8.5872  -15.4899   27.0357 C.ar    1  UNL1        0.0223
      6 C          -7.6905  -14.6425   27.8888 C.ar    1  UNL1        0.0017
      7 C          -6.2851  -14.3585   27.4482 C.ar    1  UNL1        0.0032
      8 C          -5.7763  -14.9220   26.1545 C.ar    1  UNL1        0.0391
      9 C          -6.6731  -15.7694   25.3014 C.ar    1  UNL1        0.1645
     10 O          -6.4518  -16.4564   23.9864 O.2     1  UNL1       -0.4363
     11 N          -8.6338  -17.3691   21.1907 N.pl3   1  UNL1       -0.3208
     12 H          -8.1116  -17.1076   20.3981 H       1  UNL1        0.1476
     13 C         -12.4356  -17.5856   22.3082 C.ar    1  UNL1        0.1400
     14 C         -13.0880  -16.7333   21.2604 C.ar    1  UNL1        0.0370
     15 C         -12.2557  -16.0929   20.1894 C.ar    1  UNL1        0.0044
     16 C         -10.7709  -16.3049   20.1662 C.ar    1  UNL1        0.0145
     17 C         -10.1185  -17.1572   21.2140 C.ar    1  UNL1        0.0483
     18 C         -10.9509  -17.7976   22.2850 C.ar    1  UNL1        0.0512
     19 C         -12.6279  -18.6724   24.6602 C.3     1  UNL1        0.2525
     20 O         -13.2680  -18.2260   23.3792 O.3     1  UNL1       -0.4714
     21 C          -7.4793  -19.4045   22.3197 C.2     1  UNL1        0.2013
     22 O          -8.2619  -20.4765   23.0185 O.2     1  UNL1       -0.2890
     23 C          -6.2316  -19.7574   21.5657 C.2     1  UNL1        0.0571
     24 C          -6.1456  -20.6791   20.3854 C.2     1  UNL1        0.1014
     25 N          -4.7116  -20.7419   19.9498 N.2     1  UNL1       -0.2477
     26 C          -3.9113  -19.8590   20.8609 C.2     1  UNL1        0.0635
     27 C          -2.4486  -19.5305   20.9102 C.3     1  UNL1        0.0717
     28 C          -1.9253  -18.5935   21.9582 C.2     1  UNL1       -0.0198
     29 C          -2.8647  -17.9851   22.9568 C.2     1  UNL1       -0.0041
     30 C          -4.3274  -18.3136   22.9075 C.2     1  UNL1        0.0010
     31 C          -4.8507  -19.2505   21.8596 C.2     1  UNL1        0.0182
@<TRIPOS>BOND
     1    19    20    1
     2    20    13    1
     3    13    14   ar
     4    14    15   ar
     5    15    16   ar
     6    16    17   ar
     7    17    11    1
     8    11     1    1
     9     1    21    1
    10    21    22    2
    11    21    23    1
    12    23    24    2
    13    24    25    1
    14    25    26    2
    15    26    27    1
    16    27    28    1
    17    28    29    2
    18    29    30    1
    19    30    31    2
    20     1     2    1
    21     2     3   ar
    22     3     4   ar
    23     4     5   ar
    24     5     6   ar
    25     6     7   ar
    26     7     8   ar
    27     8     9   ar
    28     9    10   ar
    29    17    18   ar
    30    18    13   ar
    31    31    23    1
    32    10     2   ar
    33    31    26    1
    34     9     4   ar
    35    11    12    1
@<TRIPOS>MOLECULE
*****
 31 35 0 0 0
SMALL
GASTEIGER

@<TRIPOS>ATOM
      1 C          -6.7531  -18.1985   21.9762 C.3     1  UNL1        0.2092
      2 C          -6.8895  -17.4096   23.2446 C.ar    1  UNL1        0.2312
      3 N          -8.1379  -17.2661   24.0638 N.ar    1  UNL1       -0.2103
      4 C          -7.8213  -16.3934   25.2420 C.ar    1  UNL1        0.1186
      5 C          -8.6615  -15.9081   26.3860 C.ar    1  UNL1        0.0223
      6 C          -8.0576  -15.0269   27.4390 C.ar    1  UNL1        0.0017
      7 C          -6.6136  -14.6311   27.3480 C.ar    1  UNL1        0.0032
      8 C          -5.7735  -15.1164   26.2041 C.ar    1  UNL1        0.0391
      9 C          -6.3774  -15.9976   25.1511 C.ar    1  UNL1        0.1645
     10 O          -5.8015  -16.6256   23.9166 O.2     1  UNL1       -0.4363
     11 N          -7.7380  -18.0032   20.8618 N.pl3   1  UNL1       -0.3208
     12 H          -7.4324  -17.6683   19.9879 H       1  UNL1        0.1476
     13 C         -11.6925  -17.6705   20.8339 C.ar    1  UNL1        0.1400
     14 C         -12.0892  -18.9477   21.5131 C.ar    1  UNL1        0.0370
     15 C         -11.0355  -19.9100   21.9753 C.ar    1  UNL1        0.0044
     16 C          -9.5851  -19.5951   21.7582 C.ar    1  UNL1        0.0145
     17 C          -9.1884  -18.3179   21.0789 C.ar    1  UNL1        0.0483
     18 C         -10.2421  -17.3556   20.6167 C.ar    1  UNL1        0.0512
     19 C         -12.4153  -15.6735   19.3373 C.3     1  UNL1        0.2525
     20 O         -12.7462  -16.7081   20.3717 O.3     1  UNL1       -0.4714
     21 C          -5.6317  -19.1829   21.8221 C.2     1  UNL1        0.2013
     22 O          -5.9321  -20.6193   21.5114 O.2     1  UNL1       -0.2890
     23 C          -4.2101  -18.7309   21.9788 C.2     1  UNL1        0.0571
     24 C          -3.5070  -18.4665   23.2772 C.2     1  UNL1        0.1014
     25 N          -2.1043  -18.0361   22.9654 N.2     1  UNL1       -0.2477
     26 C          -1.9405  -18.0344   21.4743 C.2     1  UNL1        0.0635
     27 C          -0.7744  -17.6974   20.5931 C.3     1  UNL1        0.0717
     28 C          -0.9098  -17.7897   19.1021 C.2     1  UNL1       -0.0198
     29 C          -2.2113  -18.2191   18.4924 C.2     1  UNL1       -0.0041
     30 C          -3.3774  -18.5562   19.3736 C.2     1  UNL1        0.0010
     31 C          -3.2420  -18.4638   20.8646 C.2     1  UNL1        0.0182
@<TRIPOS>BOND
     1    19    20    1
     2    20    13    1
     3    13    14   ar
     4    14    15   ar
     5    15    16   ar
     6    16    17   ar
     7    17    11    1
     8    11     1    1
     9     1    21    1
    10    21    22    2
    11    21    23    1
    12    23    24    2
    13    24    25    1
    14    25    26    2
    15    26    27    1
    16    27    28    1
    17    28    29    2
    18    29    30    1
    19    30    31    2
    20     1     2    1
    21     2     3   ar
    22     3     4   ar
    23     4     5   ar
    24     5     6   ar
    25     6     7   ar
    26     7     8   ar
    27     8     9   ar
    28     9    10   ar
    29    17    18   ar
    30    18    13   ar
    31    31    23    1
    32    10     2   ar
    33    31    26    1
    34     9     4   ar
    35    11    12    1
@<TRIPOS>MOLECULE
*****
 31 35 0 0 0
SMALL
GASTEIGER

@<TRIPOS>ATOM
      1 C          -7.9930  -17.6885   21.4899 C.3     1  UNL1        0.2092
      2 C          -6.5988  -18.2189   21.3326 C.ar    1  UNL1        0.2312
      3 N          -6.0638  -18.9519   20.1383 N.ar    1  UNL1       -0.2103
      4 C          -4.6291  -19.2954   20.4097 C.ar    1  UNL1        0.1186
      5 C          -3.5975  -20.0150   19.5925 C.ar    1  UNL1        0.0223
      6 C          -2.2142  -20.2140   20.1373 C.ar    1  UNL1        0.0017
      7 C          -1.8625  -19.6933   21.4994 C.ar    1  UNL1        0.0032
      8 C          -2.8941  -18.9737   22.3166 C.ar    1  UNL1        0.0391
      9 C          -4.2774  -18.7747   21.7717 C.ar    1  UNL1        0.1645
     10 O          -5.4948  -18.1093   22.3422 O.2     1  UNL1       -0.4363
     11 N          -9.1401  -18.3838   20.8186 N.pl3   1  UNL1       -0.3208
     12 H          -8.9848  -19.2148   20.3140 H       1  UNL1        0.1476
     13 C         -12.8227  -17.6790   22.1191 C.ar    1  UNL1        0.1400
     14 C         -13.2914  -16.6719   21.1111 C.ar    1  UNL1        0.0370
     15 C         -12.3763  -16.2354   20.0056 C.ar    1  UNL1        0.0044
     16 C         -10.9926  -16.8061   19.9081 C.ar    1  UNL1        0.0145
     17 C         -10.5239  -17.8132   20.9162 C.ar    1  UNL1        0.0483
     18 C         -11.4390  -18.2496   22.0217 C.ar    1  UNL1        0.0512
     19 C         -13.1697  -18.5236   24.5515 C.3     1  UNL1        0.2525
     20 O         -13.7378  -18.1154   23.2246 O.3     1  UNL1       -0.4714
     21 C          -8.2402  -16.4626   22.3184 C.2     1  UNL1        0.2013
     22 O          -8.2461  -15.1092   21.6719 O.2     1  UNL1       -0.2890
     23 C          -8.4814  -16.5904   23.7934 C.2     1  UNL1        0.0571
     24 C          -9.6384  -17.2927   24.4400 C.2     1  UNL1        0.1014
     25 N          -9.4799  -17.1746   25.9269 N.2     1  UNL1       -0.2477
     26 C          -8.2249  -16.3995   26.1993 C.2     1  UNL1        0.0635
     27 C          -7.5644  -15.9758   27.4776 C.3     1  UNL1        0.0717
     28 C          -6.2867  -15.1911   27.4373 C.2     1  UNL1       -0.0198
     29 C          -5.6696  -14.8300   26.1187 C.2     1  UNL1       -0.0041
     30 C          -6.3301  -15.2537   24.8404 C.2     1  UNL1        0.0010
     31 C          -7.6078  -16.0384   24.8807 C.2     1  UNL1        0.0182
@<TRIPOS>BOND
     1    19    20    1
     2    20    13    1
     3    13    14   ar
     4    14    15   ar
     5    15    16   ar
     6    16    17   ar
     7    17    11    1
     8    11     1    1
     9     1    21    1
    10    21    22    2
    11    21    23    1
    12    23    24    2
    13    24    25    1
    14    25    26    2
    15    26    27    1
    16    27    28    1
    17    28    29    2
    18    29    30    1
    19    30    31    2
    20     1     2    1
    21     2     3   ar
    22     3     4   ar
    23     4     5   ar
    24     5     6   ar
    25     6     7   ar
    26     7     8   ar
    27     8     9   ar
    28     9    10   ar
    29    17    18   ar
    30    18    13   ar
    31    31    23    1
    32    10     2   ar
    33    31    26    1
    34     9     4   ar
    35    11    12    1
@<TRIPOS>MOLECULE
*****
 31 35 0 0 0
SMALL
GASTEIGER

@<TRIPOS>ATOM
      1 C          -6.7437  -17.8909   22.2506 C.3     1  UNL1        0.2092
      2 C          -6.8938  -17.1265   23.5325 C.ar    1  UNL1        0.2312
      3 N          -5.8255  -16.3184   24.2074 N.ar    1  UNL1       -0.2103
      4 C          -6.4102  -15.7286   25.4565 C.ar    1  UNL1        0.1186
      5 C          -5.8254  -14.8448   26.5181 C.ar    1  UNL1        0.0223
      6 C          -6.6702  -14.4047   27.6768 C.ar    1  UNL1        0.0017
      7 C          -8.0999  -14.8483   27.7738 C.ar    1  UNL1        0.0032
      8 C          -8.6846  -15.7320   26.7122 C.ar    1  UNL1        0.0391
      9 C          -7.8398  -16.1721   25.5536 C.ar    1  UNL1        0.1645
     10 O          -8.1387  -17.0362   24.3644 O.2     1  UNL1       -0.4363
     11 N          -7.6477  -17.5952   21.0907 N.pl3   1  UNL1       -0.3208
     12 H          -7.3107  -17.0791   20.3230 H       1  UNL1        0.1476
     13 C         -11.5300  -17.8278   21.8800 C.ar    1  UNL1        0.1400
     14 C         -11.9001  -19.0668   21.1198 C.ar    1  UNL1        0.0370
     15 C         -10.8527  -19.8152   20.3499 C.ar    1  UNL1        0.0044
     16 C          -9.4352  -19.3247   20.3402 C.ar    1  UNL1        0.0145
     17 C          -9.0652  -18.0856   21.1004 C.ar    1  UNL1        0.0483
     18 C         -10.1126  -17.3372   21.8703 C.ar    1  UNL1        0.0512
     19 C         -13.4868  -17.8148   23.5891 C.3     1  UNL1        0.2525
     20 O         -12.5775  -17.0793   22.6499 O.3     1  UNL1       -0.4714
     21 C          -5.6894  -18.9511   22.1286 C.2     1  UNL1        0.2013
     22 O          -6.0865  -20.3874   21.9584 O.2     1  UNL1       -0.2890
     23 C          -4.2382  -18.5747   22.1767 C.2     1  UNL1        0.0571
     24 C          -3.4414  -18.2917   23.4157 C.2     1  UNL1        0.1014
     25 N          -2.0398  -17.9574   22.9990 N.2     1  UNL1       -0.2477
     26 C          -1.9703  -18.0337   21.5025 C.2     1  UNL1        0.0635
     27 C          -0.8454  -17.8051   20.5370 C.3     1  UNL1        0.0717
     28 C          -1.0793  -17.9581   19.0633 C.2     1  UNL1       -0.0198
     29 C          -2.4380  -18.3396   18.5551 C.2     1  UNL1       -0.0041
     30 C          -3.5629  -18.5682   19.5206 C.2     1  UNL1        0.0010
     31 C          -3.3291  -18.4153   20.9943 C.2     1  UNL1        0.0182
@<TRIPOS>BOND
     1    19    20    1
     2    20    13    1
     3    13    14   ar
     4    14    15   ar
     5    15    16   ar
     6    16    17   ar
     7    17    11    1
     8    11     1    1
     9     1    21    1
    10    21    22    2
    11    21    23    1
    12    23    24    2
    13    24    25    1
    14    25    26    2
    15    26    27    1
    16    27    28    1
    17    28    29    2
    18    29    30    1
    19    30    31    2
    20     1     2    1
    21     2     3   ar
    22     3     4   ar
    23     4     5   ar
    24     5     6   ar
    25     6     7   ar
    26     7     8   ar
    27     8     9   ar
    28     9    10   ar
    29    17    18   ar
    30    18    13   ar
    31    31    23    1
    32    10     2   ar
    33    31    26    1
    34     9     4   ar
    35    11    12    1
