@<TRIPOS>MOLECULE
*****
 29 31 0 0 0
SMALL
GASTEIGER

@<TRIPOS>ATOM
      1 C           3.4124   -4.2621   18.8924 C.3     1  UNL1        0.0527
      2 C           3.9206   -3.7106   20.1914 C.ar    1  UNL1        0.0673
      3 N           4.7670   -4.4436   21.1896 N.ar    1  UNL1       -0.2283
      4 C           5.0411   -3.5153   22.3355 C.ar    1  UNL1        0.1652
      5 S           4.3641   -2.2085   22.0455 S.2     1  UNL1       -0.0517
      6 C           3.6716   -2.3292   20.7204 C.ar    1  UNL1        0.0456
      7 C           2.8707   -1.2568   20.0432 C.ar    1  UNL1        0.0073
      8 C           3.4221   -0.5585   18.8356 C.ar    1  UNL1        0.0018
      9 C           2.6212    0.5139   18.1585 C.ar    1  UNL1        0.0141
     10 C           1.2690    0.8880   18.6889 C.ar    1  UNL1        0.0415
     11 N           0.4681    1.9604   18.0117 N.pl3   1  UNL1       -0.3570
     12 C           0.7175    0.1897   19.8965 C.ar    1  UNL1        0.0141
     13 C           1.5184   -0.8827   20.5736 C.ar    1  UNL1        0.0018
     14 H           0.8300    2.4187   17.2191 H       1  UNL1        0.1424
     15 H          -0.4195    2.2059   18.3599 H       1  UNL1        0.1424
     16 N           5.8501   -3.8372   23.5569 N.am    1  UNL1       -0.2627
     17 C           7.3078   -4.1659   23.4258 C.2     1  UNL1        0.2479
     18 O           7.9564   -4.1727   22.0733 O.2     1  UNL1       -0.2729
     19 H           5.4244   -3.8327   24.4446 H       1  UNL1        0.1568
     20 C           8.1168   -4.4878   24.6472 C.3     1  UNL1        0.1821
     21 N           8.0270   -5.8501   25.2687 N.am    1  UNL1       -0.2350
     22 C           8.1558   -7.1587   24.5470 C.2     1  UNL1        0.4054
     23 O           8.3971   -7.3348   23.0770 O.2     1  UNL1       -0.2262
     24 O           8.0011   -8.2602   25.5533 O.3     1  UNL1       -0.4327
     25 C           7.7766   -7.6324   26.8969 C.3     1  UNL1        0.2298
     26 C           7.7926   -6.1428   26.7211 C.3     1  UNL1        0.1227
     27 C           7.6069   -5.1248   27.8069 C.3     1  UNL1        0.0220
     28 C           6.2301   -4.8095   28.3120 C.3     1  UNL1        0.0018
     29 C           8.7979   -4.4219   28.3877 C.3     1  UNL1        0.0018
@<TRIPOS>BOND
     1     1     2    1
     2     2     3   ar
     3     3     4   ar
     4     4    16    1
     5    16    17   am
     6    17    18    2
     7    17    20    1
     8    20    21    1
     9    21    22   am
    10    22    23    2
    11    22    24    1
    12    24    25    1
    13    25    26    1
    14    26    27    1
    15    27    28    1
    16    27    29    1
    17     4     5   ar
    18     5     6   ar
    19     6     7    1
    20     7     8   ar
    21     8     9   ar
    22     9    10   ar
    23    10    11    1
    24    10    12   ar
    25    12    13   ar
    26     6     2   ar
    27    13     7   ar
    28    26    21    1
    29    16    19    1
    30    11    14    1
    31    11    15    1
@<TRIPOS>MOLECULE
*****
 29 31 0 0 0
SMALL
GASTEIGER

@<TRIPOS>ATOM
      1 C           8.5458   -6.4419   24.4055 C.3     1  UNL1        0.0527
      2 C           7.6620   -5.3425   23.8956 C.ar    1  UNL1        0.0673
      3 N           7.3954   -5.0223   22.4546 N.ar    1  UNL1       -0.2283
      4 C           6.4582   -3.8521   22.4055 C.ar    1  UNL1        0.1652
      5 S           6.1457   -3.4491   23.8161 S.2     1  UNL1       -0.0517
      6 C           6.8896   -4.3702   24.7370 C.ar    1  UNL1        0.0456
      7 C           6.8655   -4.3266   26.2363 C.ar    1  UNL1        0.0073
      8 C           7.2817   -3.0788   26.9571 C.ar    1  UNL1        0.0018
      9 C           7.2575   -3.0353   28.4563 C.ar    1  UNL1        0.0141
     10 C           6.8171   -4.2396   29.2345 C.ar    1  UNL1        0.0415
     11 N           6.7929   -4.1960   30.7338 N.pl3   1  UNL1       -0.3570
     12 C           6.4009   -5.4874   28.5137 C.ar    1  UNL1        0.0141
     13 C           6.4251   -5.5309   27.0145 C.ar    1  UNL1        0.0018
     14 H           7.0661   -3.3770   31.2069 H       1  UNL1        0.1424
     15 H           6.5039   -4.9864   31.2446 H       1  UNL1        0.1424
     16 N           5.9269   -3.1995   21.1638 N.am    1  UNL1       -0.2627
     17 C           4.7432   -3.7880   20.4549 C.2     1  UNL1        0.2479
     18 O           4.0908   -5.0293   20.9878 O.2     1  UNL1       -0.2729
     19 H           6.3551   -2.3848   20.8141 H       1  UNL1        0.1568
     20 C           4.2119   -3.1355   19.2132 C.3     1  UNL1        0.1821
     21 N           4.4603   -1.6767   18.9676 N.am    1  UNL1       -0.2350
     22 C           5.5036   -1.1012   18.0564 C.2     1  UNL1        0.4054
     23 O           6.4818   -1.8834   17.2309 O.2     1  UNL1       -0.2262
     24 O           5.3972    0.3938   18.1157 O.3     1  UNL1       -0.4327
     25 C           4.2881    0.7423   19.0634 C.3     1  UNL1        0.2298
     26 C           3.7090   -0.5373   19.5899 C.3     1  UNL1        0.1227
     27 C           2.5774   -0.6567   20.5673 C.3     1  UNL1        0.0220
     28 C           2.8639   -0.8011   22.0326 C.3     1  UNL1        0.0018
     29 C           1.1592   -0.6316   20.0793 C.3     1  UNL1        0.0018
@<TRIPOS>BOND
     1     1     2    1
     2     2     3   ar
     3     3     4   ar
     4     4    16    1
     5    16    17   am
     6    17    18    2
     7    17    20    1
     8    20    21    1
     9    21    22   am
    10    22    23    2
    11    22    24    1
    12    24    25    1
    13    25    26    1
    14    26    27    1
    15    27    28    1
    16    27    29    1
    17     4     5   ar
    18     5     6   ar
    19     6     7    1
    20     7     8   ar
    21     8     9   ar
    22     9    10   ar
    23    10    11    1
    24    10    12   ar
    25    12    13   ar
    26     6     2   ar
    27    13     7   ar
    28    26    21    1
    29    16    19    1
    30    11    14    1
    31    11    15    1
@<TRIPOS>MOLECULE
*****
 29 31 0 0 0
SMALL
GASTEIGER

@<TRIPOS>ATOM
      1 C           3.5243   -4.2144   18.9742 C.3     1  UNL1        0.0527
      2 C           3.9695   -3.6511   20.2912 C.ar    1  UNL1        0.0673
      3 N           4.7939   -4.3641   21.3216 N.ar    1  UNL1       -0.2283
      4 C           5.0023   -3.4296   22.4764 C.ar    1  UNL1        0.1652
      5 S           4.3066   -2.1391   22.1595 S.2     1  UNL1       -0.0517
      6 C           3.6683   -2.2759   20.8090 C.ar    1  UNL1        0.0456
      7 C           2.8690   -1.2225   20.1007 C.ar    1  UNL1        0.0073
      8 C           1.5109   -0.8418   20.6111 C.ar    1  UNL1        0.0018
      9 C           0.7118    0.2116   19.9028 C.ar    1  UNL1        0.0141
     10 C           1.2708    0.8843   18.6842 C.ar    1  UNL1        0.0415
     11 N           0.4715    1.9377   17.9759 N.pl3   1  UNL1       -0.3570
     12 C           2.6289    0.5036   18.1738 C.ar    1  UNL1        0.0141
     13 C           3.4280   -0.5498   18.8821 C.ar    1  UNL1        0.0018
     14 H          -0.4199    2.1876   18.3108 H       1  UNL1        0.1424
     15 H           0.8384    2.3792   17.1760 H       1  UNL1        0.1424
     16 N           5.7713   -3.7325   23.7281 N.am    1  UNL1       -0.2627
     17 C           7.2397   -4.0296   23.6528 C.2     1  UNL1        0.2479
     18 O           7.9390   -4.0238   22.3258 O.2     1  UNL1       -0.2729
     19 H           5.3124   -3.7363   24.5991 H       1  UNL1        0.1568
     20 C           8.0087   -4.3326   24.9045 C.3     1  UNL1        0.1821
     21 N           7.2954   -4.4156   26.2215 N.am    1  UNL1       -0.2350
     22 C           6.5070   -3.3155   26.8681 C.2     1  UNL1        0.4054
     23 O           6.2935   -1.9391   26.3113 O.2     1  UNL1       -0.2262
     24 O           5.9696   -3.8334   28.1692 O.3     1  UNL1       -0.4327
     25 C           6.4258   -5.2535   28.3267 C.3     1  UNL1        0.2298
     26 C           7.2452   -5.6134   27.1230 C.3     1  UNL1        0.1227
     27 C           7.8996   -6.9384   26.8659 C.3     1  UNL1        0.0220
     28 C           7.5887   -7.6974   25.6099 C.3     1  UNL1        0.0018
     29 C           8.8649   -7.5046   27.8647 C.3     1  UNL1        0.0018
@<TRIPOS>BOND
     1     1     2    1
     2     2     3   ar
     3     3     4   ar
     4     4    16    1
     5    16    17   am
     6    17    18    2
     7    17    20    1
     8    20    21    1
     9    21    22   am
    10    22    23    2
    11    22    24    1
    12    24    25    1
    13    25    26    1
    14    26    27    1
    15    27    28    1
    16    27    29    1
    17     4     5   ar
    18     5     6   ar
    19     6     7    1
    20     7     8   ar
    21     8     9   ar
    22     9    10   ar
    23    10    11    1
    24    10    12   ar
    25    12    13   ar
    26     6     2   ar
    27    13     7   ar
    28    26    21    1
    29    16    19    1
    30    11    14    1
    31    11    15    1
@<TRIPOS>MOLECULE
*****
 29 31 0 0 0
SMALL
GASTEIGER

@<TRIPOS>ATOM
      1 C           3.3671   -4.2530   18.8997 C.3     1  UNL1        0.0527
      2 C           3.8663   -3.7012   20.2021 C.ar    1  UNL1        0.0673
      3 N           4.6977   -4.4371   21.2107 N.ar    1  UNL1       -0.2283
      4 C           4.9670   -3.5073   22.3566 C.ar    1  UNL1        0.1652
      5 S           4.3021   -2.1967   22.0561 S.2     1  UNL1       -0.0517
      6 C           3.6219   -2.3165   20.7246 C.ar    1  UNL1        0.0456
      7 C           2.8352   -1.2406   20.0364 C.ar    1  UNL1        0.0073
      8 C           3.3943   -0.5644   18.8197 C.ar    1  UNL1        0.0018
      9 C           2.6076    0.5115   18.1316 C.ar    1  UNL1        0.0141
     10 C           1.2620    0.9113   18.6601 C.ar    1  UNL1        0.0415
     11 N           0.4753    1.9872   17.9718 N.pl3   1  UNL1       -0.3570
     12 C           0.7029    0.2351   19.8767 C.ar    1  UNL1        0.0141
     13 C           1.4895   -0.8408   20.5649 C.ar    1  UNL1        0.0018
     14 H           0.8423    2.4310   17.1733 H       1  UNL1        0.1424
     15 H          -0.4079    2.2496   18.3187 H       1  UNL1        0.1424
     16 N           5.7617   -3.8312   23.5868 N.am    1  UNL1       -0.2627
     17 C           7.1043   -4.4880   23.4611 C.2     1  UNL1        0.2479
     18 O           7.6523   -4.8210   22.1049 O.2     1  UNL1       -0.2729
     19 H           5.4020   -3.6126   24.4768 H       1  UNL1        0.1568
     20 C           7.8990   -4.8119   24.6913 C.3     1  UNL1        0.1821
     21 N           7.2403   -4.7837   26.0387 N.am    1  UNL1       -0.2350
     22 C           6.7370   -5.9746   26.7991 C.2     1  UNL1        0.4054
     23 O           6.8039   -7.4030   26.3456 O.2     1  UNL1       -0.2262
     24 O           6.1549   -5.4866   28.0925 O.3     1  UNL1       -0.4327
     25 C           6.2986   -3.9941   28.1315 C.3     1  UNL1        0.2298
     26 C           6.9694   -3.5596   26.8621 C.3     1  UNL1        0.1227
     27 C           7.3096   -2.1488   26.4829 C.3     1  UNL1        0.0220
     28 C           6.2295   -1.2140   26.0249 C.3     1  UNL1        0.0018
     29 C           8.7298   -1.6727   26.5615 C.3     1  UNL1        0.0018
@<TRIPOS>BOND
     1     1     2    1
     2     2     3   ar
     3     3     4   ar
     4     4    16    1
     5    16    17   am
     6    17    18    2
     7    17    20    1
     8    20    21    1
     9    21    22   am
    10    22    23    2
    11    22    24    1
    12    24    25    1
    13    25    26    1
    14    26    27    1
    15    27    28    1
    16    27    29    1
    17     4     5   ar
    18     5     6   ar
    19     6     7    1
    20     7     8   ar
    21     8     9   ar
    22     9    10   ar
    23    10    11    1
    24    10    12   ar
    25    12    13   ar
    26     6     2   ar
    27    13     7   ar
    28    26    21    1
    29    16    19    1
    30    11    14    1
    31    11    15    1
@<TRIPOS>MOLECULE
*****
 29 31 0 0 0
SMALL
GASTEIGER

@<TRIPOS>ATOM
      1 C          -9.5133   -4.5949   19.0478 C.3     1  UNL1        0.0527
      2 C         -10.9360   -5.0251   18.8458 C.ar    1  UNL1        0.0673
      3 N         -11.4781   -6.4071   19.0605 N.ar    1  UNL1       -0.2283
      4 C         -12.9436   -6.3850   18.7411 C.ar    1  UNL1        0.1652
      5 S         -13.3071   -4.9893   18.3290 S.2     1  UNL1       -0.0517
      6 C         -12.0664   -4.1488   18.3938 C.ar    1  UNL1        0.0456
      7 C         -11.9726   -2.6884   18.0642 C.ar    1  UNL1        0.0073
      8 C         -12.9248   -1.7150   18.6932 C.ar    1  UNL1        0.0018
      9 C         -12.8309   -0.2547   18.3637 C.ar    1  UNL1        0.0141
     10 C         -11.7849    0.2322   17.4052 C.ar    1  UNL1        0.0415
     11 N         -11.6910    1.6926   17.0757 N.pl3   1  UNL1       -0.3570
     12 C         -10.8327   -0.7412   16.7762 C.ar    1  UNL1        0.0141
     13 C         -10.9265   -2.2016   17.1057 C.ar    1  UNL1        0.0018
     14 H         -12.3160    2.3315   17.4885 H       1  UNL1        0.1424
     15 H         -11.0045    2.0122   16.4466 H       1  UNL1        0.1424
     16 N         -13.8809   -7.5535   18.8199 N.am    1  UNL1       -0.2627
     17 C         -14.3411   -8.2318   17.5637 C.2     1  UNL1        0.2479
     18 O         -13.8641   -7.7417   16.2287 O.2     1  UNL1       -0.2729
     19 H         -14.1940   -7.8751   19.6961 H       1  UNL1        0.1568
     20 C         -15.2784   -9.4003   17.6426 C.3     1  UNL1        0.1821
     21 N         -16.6067   -9.2517   18.3234 N.am    1  UNL1       -0.2350
     22 C         -17.2688  -10.2751   19.1976 C.2     1  UNL1        0.4054
     23 O         -16.7187  -11.6269   19.5445 O.2     1  UNL1       -0.2262
     24 O         -18.5774   -9.7095   19.6641 O.3     1  UNL1       -0.4327
     25 C         -18.7241   -8.3365   19.0782 C.3     1  UNL1        0.2298
     26 C         -17.5062   -8.0536   18.2496 C.3     1  UNL1        0.1227
     27 C         -17.2352   -6.7937   17.4820 C.3     1  UNL1        0.0220
     28 C         -16.8727   -5.5341   18.2114 C.3     1  UNL1        0.0018
     29 C         -17.3269   -6.7933   15.9848 C.3     1  UNL1        0.0018
@<TRIPOS>BOND
     1     1     2    1
     2     2     3   ar
     3     3     4   ar
     4     4    16    1
     5    16    17   am
     6    17    18    2
     7    17    20    1
     8    20    21    1
     9    21    22   am
    10    22    23    2
    11    22    24    1
    12    24    25    1
    13    25    26    1
    14    26    27    1
    15    27    28    1
    16    27    29    1
    17     4     5   ar
    18     5     6   ar
    19     6     7    1
    20     7     8   ar
    21     8     9   ar
    22     9    10   ar
    23    10    11    1
    24    10    12   ar
    25    12    13   ar
    26     6     2   ar
    27    13     7   ar
    28    26    21    1
    29    16    19    1
    30    11    14    1
    31    11    15    1
@<TRIPOS>MOLECULE
*****
 29 31 0 0 0
SMALL
GASTEIGER

@<TRIPOS>ATOM
      1 C           6.4589   -2.3076   22.9298 C.3     1  UNL1        0.0527
      2 C           5.2182   -1.6432   23.4487 C.ar    1  UNL1        0.0673
      3 N           4.8861   -1.3993   24.8910 N.ar    1  UNL1       -0.2283
      4 C           3.5544   -0.7114   24.9501 C.ar    1  UNL1        0.1652
      5 S           3.0635   -0.5302   23.5443 S.2     1  UNL1       -0.0517
      6 C           4.0918   -1.1061   22.6164 C.ar    1  UNL1        0.0456
      7 C           4.0083   -1.1390   21.1190 C.ar    1  UNL1        0.0073
      8 C           4.0562    0.1400   20.3369 C.ar    1  UNL1        0.0018
      9 C           3.9727    0.1070   18.8396 C.ar    1  UNL1        0.0141
     10 C           3.8413   -1.2050   18.1245 C.ar    1  UNL1        0.0415
     11 N           3.7579   -1.2379   16.6271 N.pl3   1  UNL1       -0.3570
     12 C           3.7935   -2.4840   18.9066 C.ar    1  UNL1        0.0141
     13 C           3.8769   -2.4510   20.4039 C.ar    1  UNL1        0.0018
     14 H           3.7893   -0.3984   16.1137 H       1  UNL1        0.1424
     15 H           3.6716   -2.0990   16.1577 H       1  UNL1        0.1424
     16 N           2.8391   -0.2805   26.1961 N.am    1  UNL1       -0.2627
     17 C           3.0584    1.0968   26.7485 C.2     1  UNL1        0.2479
     18 O           3.9929    2.0431   26.0547 O.2     1  UNL1       -0.2729
     19 H           2.2258   -0.9015   26.6515 H       1  UNL1        0.1568
     20 C           2.3432    1.5278   27.9946 C.3     1  UNL1        0.1821
     21 N           1.0694    0.8481   28.4014 N.am    1  UNL1       -0.2350
     22 C           0.9156   -0.1404   29.5191 C.2     1  UNL1        0.4054
     23 O           2.0086   -0.6226   30.4263 O.2     1  UNL1       -0.2262
     24 O          -0.5231   -0.5619   29.5704 O.3     1  UNL1       -0.4327
     25 C          -1.2583    0.1660   28.4844 C.3     1  UNL1        0.2298
     26 C          -0.2741    1.0374   27.7619 C.3     1  UNL1        0.1227
     27 C          -0.5798    1.9398   26.6033 C.3     1  UNL1        0.0220
     28 C          -1.2811    3.2455   26.8342 C.3     1  UNL1        0.0018
     29 C          -0.1842    1.5364   25.2138 C.3     1  UNL1        0.0018
@<TRIPOS>BOND
     1     1     2    1
     2     2     3   ar
     3     3     4   ar
     4     4    16    1
     5    16    17   am
     6    17    18    2
     7    17    20    1
     8    20    21    1
     9    21    22   am
    10    22    23    2
    11    22    24    1
    12    24    25    1
    13    25    26    1
    14    26    27    1
    15    27    28    1
    16    27    29    1
    17     4     5   ar
    18     5     6   ar
    19     6     7    1
    20     7     8   ar
    21     8     9   ar
    22     9    10   ar
    23    10    11    1
    24    10    12   ar
    25    12    13   ar
    26     6     2   ar
    27    13     7   ar
    28    26    21    1
    29    16    19    1
    30    11    14    1
    31    11    15    1
@<TRIPOS>MOLECULE
*****
 29 31 0 0 0
SMALL
GASTEIGER

@<TRIPOS>ATOM
      1 C           8.0505   -7.4686   24.8209 C.3     1  UNL1        0.0527
      2 C           7.7093   -6.0117   24.7158 C.ar    1  UNL1        0.0673
      3 N           7.4279   -5.2613   23.4478 N.ar    1  UNL1       -0.2283
      4 C           7.1344   -3.8352   23.8086 C.ar    1  UNL1        0.1652
      5 S           7.2343   -3.7042   25.2995 S.2     1  UNL1       -0.0517
      6 C           7.5897   -5.0494   25.8602 C.ar    1  UNL1        0.0456
      7 C           7.7902   -5.3750   27.3107 C.ar    1  UNL1        0.0073
      8 C           6.6271   -5.3314   28.2568 C.ar    1  UNL1        0.0018
      9 C           6.8276   -5.6570   29.7072 C.ar    1  UNL1        0.0141
     10 C           8.1912   -6.0262   30.2115 C.ar    1  UNL1        0.0415
     11 N           8.3917   -6.3518   31.6620 N.pl3   1  UNL1       -0.3570
     12 C           9.3543   -6.0698   29.2653 C.ar    1  UNL1        0.0141
     13 C           9.1538   -5.7442   27.8149 C.ar    1  UNL1        0.0018
     14 H           7.6283   -6.3232   32.2830 H       1  UNL1        0.1424
     15 H           9.2867   -6.5942   31.9929 H       1  UNL1        0.1424
     16 N           6.7996   -2.7335   22.8472 N.am    1  UNL1       -0.2627
     17 C           5.3896   -2.5613   22.3652 C.2     1  UNL1        0.2479
     18 O           4.3143   -3.4909   22.8447 O.2     1  UNL1       -0.2729
     19 H           7.5053   -2.1235   22.5325 H       1  UNL1        0.1568
     20 C           5.0549   -1.4597   21.4039 C.3     1  UNL1        0.1821
     21 N           5.0637   -1.7243   19.9274 N.am    1  UNL1       -0.2350
     22 C           6.0970   -2.5134   19.1793 C.2     1  UNL1        0.4054
     23 O           7.3028   -3.1765   19.7763 O.2     1  UNL1       -0.2262
     24 O           5.7128   -2.5230   17.7294 O.3     1  UNL1       -0.4327
     25 C           4.4421   -1.7398   17.5814 C.3     1  UNL1        0.2298
     26 C           4.0410   -1.2462   18.9398 C.3     1  UNL1        0.1227
     27 C           2.8297   -0.4196   19.2553 C.3     1  UNL1        0.0220
     28 C           1.7371   -0.9867   20.1125 C.3     1  UNL1        0.0018
     29 C           2.7110    0.9742   18.7137 C.3     1  UNL1        0.0018
@<TRIPOS>BOND
     1     1     2    1
     2     2     3   ar
     3     3     4   ar
     4     4    16    1
     5    16    17   am
     6    17    18    2
     7    17    20    1
     8    20    21    1
     9    21    22   am
    10    22    23    2
    11    22    24    1
    12    24    25    1
    13    25    26    1
    14    26    27    1
    15    27    28    1
    16    27    29    1
    17     4     5   ar
    18     5     6   ar
    19     6     7    1
    20     7     8   ar
    21     8     9   ar
    22     9    10   ar
    23    10    11    1
    24    10    12   ar
    25    12    13   ar
    26     6     2   ar
    27    13     7   ar
    28    26    21    1
    29    16    19    1
    30    11    14    1
    31    11    15    1
@<TRIPOS>MOLECULE
*****
 29 31 0 0 0
SMALL
GASTEIGER

@<TRIPOS>ATOM
      1 C          -1.4277   -0.1606   29.0615 C.3     1  UNL1        0.0527
      2 C           0.0275    0.0915   28.7991 C.ar    1  UNL1        0.0673
      3 N           1.1761   -0.4996   29.5615 N.ar    1  UNL1       -0.2283
      4 C           2.4481    0.0226   28.9618 C.ar    1  UNL1        0.1652
      5 S           2.0855    0.9363   27.8289 S.2     1  UNL1       -0.0517
      6 C           0.5895    0.9789   27.7283 C.ar    1  UNL1        0.0456
      7 C          -0.2050    1.7701   26.7318 C.ar    1  UNL1        0.0073
      8 C           0.1125    1.6690   25.2694 C.ar    1  UNL1        0.0018
      9 C          -0.6820    2.4601   24.2730 C.ar    1  UNL1        0.0141
     10 C          -1.7940    3.3524   24.7391 C.ar    1  UNL1        0.0415
     11 N          -2.5886    4.1435   23.7426 N.pl3   1  UNL1       -0.3570
     12 C          -2.1116    3.4535   26.2016 C.ar    1  UNL1        0.0141
     13 C          -1.3171    2.6623   27.1980 C.ar    1  UNL1        0.0018
     14 H          -2.3801    4.0772   22.7827 H       1  UNL1        0.1424
     15 H          -3.3184    4.7291   24.0485 H       1  UNL1        0.1424
     16 N           3.8385   -0.3106   29.4155 N.am    1  UNL1       -0.2627
     17 C           4.6449   -1.3340   28.6723 C.2     1  UNL1        0.2479
     18 O           4.0609   -2.0243   27.4754 O.2     1  UNL1       -0.2729
     19 H           4.2218    0.1425   30.2010 H       1  UNL1        0.1568
     20 C           6.0353   -1.6672   29.1259 C.3     1  UNL1        0.1821
     21 N           6.3723   -3.0676   29.5446 N.am    1  UNL1       -0.2350
     22 C           6.5962   -4.2326   28.6267 C.2     1  UNL1        0.4054
     23 O           6.5224   -4.2016   27.1287 O.2     1  UNL1       -0.2262
     24 O           6.9068   -5.4338   29.4695 O.3     1  UNL1       -0.4327
     25 C           6.8749   -5.0113   30.9083 C.3     1  UNL1        0.2298
     26 C           6.5445   -3.5489   30.9548 C.3     1  UNL1        0.1227
     27 C           6.4101   -2.7143   32.1939 C.3     1  UNL1        0.0220
     28 C           7.6063   -2.0018   32.7519 C.3     1  UNL1        0.0018
     29 C           5.0792   -2.5921   32.8751 C.3     1  UNL1        0.0018
@<TRIPOS>BOND
     1     1     2    1
     2     2     3   ar
     3     3     4   ar
     4     4    16    1
     5    16    17   am
     6    17    18    2
     7    17    20    1
     8    20    21    1
     9    21    22   am
    10    22    23    2
    11    22    24    1
    12    24    25    1
    13    25    26    1
    14    26    27    1
    15    27    28    1
    16    27    29    1
    17     4     5   ar
    18     5     6   ar
    19     6     7    1
    20     7     8   ar
    21     8     9   ar
    22     9    10   ar
    23    10    11    1
    24    10    12   ar
    25    12    13   ar
    26     6     2   ar
    27    13     7   ar
    28    26    21    1
    29    16    19    1
    30    11    14    1
    31    11    15    1
@<TRIPOS>MOLECULE
*****
 29 31 0 0 0
SMALL
GASTEIGER

@<TRIPOS>ATOM
      1 C         -10.1210   -4.2697   18.0293 C.3     1  UNL1        0.0527
      2 C         -11.5294   -4.4566   18.5103 C.ar    1  UNL1        0.0673
      3 N         -12.0901   -5.6999   19.1346 N.ar    1  UNL1       -0.2283
      4 C         -13.5317   -5.4448   19.4616 C.ar    1  UNL1        0.1652
      5 S         -13.8618   -4.0439   19.0393 S.2     1  UNL1       -0.0517
      6 C         -12.6244   -3.4332   18.4514 C.ar    1  UNL1        0.0456
      7 C         -12.5032   -2.0430   17.9011 C.ar    1  UNL1        0.0073
      8 C         -11.9292   -1.8255   16.5325 C.ar    1  UNL1        0.0018
      9 C         -11.8081   -0.4353   15.9823 C.ar    1  UNL1        0.0141
     10 C         -12.2609    0.7373   16.8007 C.ar    1  UNL1        0.0415
     11 N         -12.1397    2.1276   16.2505 N.pl3   1  UNL1       -0.3570
     12 C         -12.8348    0.5198   18.1694 C.ar    1  UNL1        0.0141
     13 C         -12.9560   -0.8703   18.7196 C.ar    1  UNL1        0.0018
     14 H         -11.7630    2.2703   15.3522 H       1  UNL1        0.1424
     15 H         -12.4369    2.8972   16.7876 H       1  UNL1        0.1424
     16 N         -14.4771   -6.4195   20.0990 N.am    1  UNL1       -0.2627
     17 C         -15.2327   -7.3971   19.2483 C.2     1  UNL1        0.2479
     18 O         -15.0429   -7.3999   17.7603 O.2     1  UNL1       -0.2729
     19 H         -14.6016   -6.4177   21.0755 H       1  UNL1        0.1568
     20 C         -16.1780   -8.3718   19.8857 C.3     1  UNL1        0.1821
     21 N         -17.2135   -9.0667   19.0521 N.am    1  UNL1       -0.2350
     22 C         -17.0121  -10.3296   18.2682 C.2     1  UNL1        0.4054
     23 O         -15.7398  -11.1193   18.1802 O.2     1  UNL1       -0.2262
     24 O         -18.3063  -10.6642   17.5877 O.3     1  UNL1       -0.4327
     25 C         -19.3076   -9.6081   17.9511 C.3     1  UNL1        0.2298
     26 C         -18.6322   -8.6208   18.8561 C.3     1  UNL1        0.1227
     27 C         -19.2645   -7.4017   19.4593 C.3     1  UNL1        0.0220
     28 C         -18.8267   -6.0353   19.0218 C.3     1  UNL1        0.0018
     29 C         -20.3346   -7.5488   20.5001 C.3     1  UNL1        0.0018
@<TRIPOS>BOND
     1     1     2    1
     2     2     3   ar
     3     3     4   ar
     4     4    16    1
     5    16    17   am
     6    17    18    2
     7    17    20    1
     8    20    21    1
     9    21    22   am
    10    22    23    2
    11    22    24    1
    12    24    25    1
    13    25    26    1
    14    26    27    1
    15    27    28    1
    16    27    29    1
    17     4     5   ar
    18     5     6   ar
    19     6     7    1
    20     7     8   ar
    21     8     9   ar
    22     9    10   ar
    23    10    11    1
    24    10    12   ar
    25    12    13   ar
    26     6     2   ar
    27    13     7   ar
    28    26    21    1
    29    16    19    1
    30    11    14    1
    31    11    15    1
