@<TRIPOS>MOLECULE
*****
 30 33 0 0 0
SMALL
GASTEIGER

@<TRIPOS>ATOM
      1 C           3.0971    0.0570   19.7246 C.ar    1  UNL1        0.0515
      2 C           4.3353    0.5728   20.3960 C.ar    1  UNL1        0.0160
      3 C           5.4117   -0.3820   20.8199 C.ar    1  UNL1        0.0174
      4 C           5.2499   -1.8525   20.5725 C.ar    1  UNL1        0.0712
      5 C           4.0117   -2.3683   19.9011 C.ar    1  UNL1        0.0729
      6 CL          3.8499   -3.8389   19.6536 Cl      1  UNL1       -0.0809
      7 C           2.9353   -1.4136   19.4771 C.ar    1  UNL1        0.0273
      8 N           6.3264   -2.8073   20.9964 N.am    1  UNL1       -0.2070
      9 C           7.6128   -3.0650   20.2693 C.2     1  UNL1        0.2360
     10 O           8.0487   -2.4131   18.9906 O.2     1  UNL1       -0.2741
     11 C           8.3869   -4.0889   21.0454 C.3     1  UNL1        0.0995
     12 C           7.5788   -4.4641   22.2522 C.3     1  UNL1        0.1087
     13 C           6.3054   -3.6720   22.2219 C.2     1  UNL1        0.2393
     14 O           5.2043   -3.7338   23.2386 O.2     1  UNL1       -0.2738
     15 C           7.9748   -5.4570   23.3045 C.ar    1  UNL1       -0.0134
     16 C           7.5751   -5.2354   24.7331 C.ar    1  UNL1       -0.0038
     17 C           7.9710   -6.2283   25.7855 C.ar    1  UNL1       -0.0003
     18 C           8.7666   -7.4428   25.4091 C.ar    1  UNL1       -0.0000
     19 C           9.1664   -7.6646   23.9803 C.ar    1  UNL1       -0.0003
     20 C           8.7704   -6.6717   22.9282 C.ar    1  UNL1       -0.0038
     21 O           0.8203    0.6703   21.5794 O.2     1  UNL1       -0.2682
     22 C           0.8823    1.3184   20.2280 C.2     1  UNL1        0.2672
     23 N           2.0206    1.0118   19.3006 N.am    1  UNL1       -0.2791
     24 H           2.0613    1.4371   18.4137 H       1  UNL1        0.1552
     25 C          -0.1942    2.2732   19.8040 C.ar    1  UNL1        0.1348
     26 C          -0.0728    3.0110   18.5037 C.ar    1  UNL1        0.0238
     27 C          -1.1492    3.9657   18.0798 C.ar    1  UNL1        0.0033
     28 C          -2.3471    4.1826   18.9562 C.ar    1  UNL1        0.0207
     29 C          -2.4685    3.4449   20.2566 C.ar    1  UNL1        0.0990
     30 N          -1.3920    2.4902   20.6805 N.ar    1  UNL1       -0.2392
@<TRIPOS>BOND
     1    21    22    2
     2    22    23   am
     3    23     1    1
     4     1     2   ar
     5     2     3   ar
     6     3     4   ar
     7     4     8    1
     8     8     9   am
     9     9    10    2
    10     9    11    1
    11    11    12    1
    12    12    15    1
    13    15    16   ar
    14    16    17   ar
    15    17    18   ar
    16    18    19   ar
    17    19    20   ar
    18    12    13    1
    19    13    14    2
    20     4     5   ar
    21     5     6    1
    22     5     7   ar
    23    22    25    1
    24    25    26   ar
    25    26    27   ar
    26    27    28   ar
    27    28    29   ar
    28    29    30   ar
    29     7     1   ar
    30    30    25   ar
    31    13     8   am
    32    20    15   ar
    33    23    24    1
@<TRIPOS>MOLECULE
*****
 30 33 0 0 0
SMALL
GASTEIGER

@<TRIPOS>ATOM
      1 C           5.3236   -0.9051   34.2177 C.ar    1  UNL1        0.0515
      2 C           4.3143   -1.7104   33.4543 C.ar    1  UNL1        0.0160
      3 C           4.7101   -2.3953   32.1799 C.ar    1  UNL1        0.0174
      4 C           6.1152   -2.2749   31.6688 C.ar    1  UNL1        0.0712
      5 C           7.1245   -1.4696   32.4322 C.ar    1  UNL1        0.0729
      6 CL          8.5296   -1.3493   31.9211 Cl      1  UNL1       -0.0809
      7 C           6.7287   -0.7847   33.7066 C.ar    1  UNL1        0.0273
      8 N           6.5110   -2.9599   30.3944 N.am    1  UNL1       -0.2070
      9 C           6.6728   -2.3047   29.0548 C.2     1  UNL1        0.2360
     10 O           6.4674   -0.8495   28.7545 O.2     1  UNL1       -0.2741
     11 C           7.0762   -3.3601   28.0682 C.3     1  UNL1        0.0995
     12 C           7.1637   -4.6676   28.7981 C.3     1  UNL1        0.1087
     13 C           6.8143   -4.4203   30.2357 C.2     1  UNL1        0.2393
     14 O           6.7752   -5.4522   31.3236 O.2     1  UNL1       -0.2738
     15 C           7.5353   -5.9903   28.1960 C.ar    1  UNL1       -0.0134
     16 C           8.5517   -6.8627   28.8712 C.ar    1  UNL1       -0.0038
     17 C           8.9233   -8.1853   28.2691 C.ar    1  UNL1       -0.0003
     18 C           8.2784   -8.6356   26.9919 C.ar    1  UNL1       -0.0000
     19 C           7.2619   -7.7632   26.3167 C.ar    1  UNL1       -0.0003
     20 C           6.8904   -6.4407   26.9188 C.ar    1  UNL1       -0.0038
     21 O           3.8060    1.6810   34.1221 O.2     1  UNL1       -0.2682
     22 C           4.1690    1.0729   35.4444 C.2     1  UNL1        0.2672
     23 N           4.9278   -0.2202   35.4922 N.am    1  UNL1       -0.2791
     24 H           5.1661   -0.6193   36.3600 H       1  UNL1        0.1552
     25 C           3.7733    1.7578   36.7189 C.ar    1  UNL1        0.1348
     26 C           4.7940    1.9919   37.7928 C.ar    1  UNL1        0.0238
     27 C           4.3982    2.6768   39.0672 C.ar    1  UNL1        0.0033
     28 C           2.9817    3.1277   39.2677 C.ar    1  UNL1        0.0207
     29 C           1.9609    2.8936   38.1938 C.ar    1  UNL1        0.0990
     30 N           2.3567    2.2086   36.9194 N.ar    1  UNL1       -0.2392
@<TRIPOS>BOND
     1    21    22    2
     2    22    23   am
     3    23     1    1
     4     1     2   ar
     5     2     3   ar
     6     3     4   ar
     7     4     8    1
     8     8     9   am
     9     9    10    2
    10     9    11    1
    11    11    12    1
    12    12    15    1
    13    15    16   ar
    14    16    17   ar
    15    17    18   ar
    16    18    19   ar
    17    19    20   ar
    18    12    13    1
    19    13    14    2
    20     4     5   ar
    21     5     6    1
    22     5     7   ar
    23    22    25    1
    24    25    26   ar
    25    26    27   ar
    26    27    28   ar
    27    28    29   ar
    28    29    30   ar
    29     7     1   ar
    30    30    25   ar
    31    13     8   am
    32    20    15   ar
    33    23    24    1
@<TRIPOS>MOLECULE
*****
 30 33 0 0 0
SMALL
GASTEIGER

@<TRIPOS>ATOM
      1 C           6.3479   -3.8771   22.7431 C.ar    1  UNL1        0.0515
      2 C           4.8668   -3.8967   22.5072 C.ar    1  UNL1        0.0160
      3 C           4.2590   -2.9884   21.4798 C.ar    1  UNL1        0.0174
      4 C           5.1324   -2.0606   20.6884 C.ar    1  UNL1        0.0712
      5 C           6.6135   -2.0410   20.9243 C.ar    1  UNL1        0.0729
      6 CL          7.4869   -1.1132   20.1329 Cl      1  UNL1       -0.0809
      7 C           7.2213   -2.9493   21.9517 C.ar    1  UNL1        0.0273
      8 N           4.5245   -1.1523   19.6609 N.am    1  UNL1       -0.2070
      9 C           4.6618   -1.2871   18.1733 C.2     1  UNL1        0.2360
     10 O           5.4310   -2.3538   17.4519 O.2     1  UNL1       -0.2741
     11 C           3.8948   -0.1679   17.5337 C.3     1  UNL1        0.0995
     12 C           3.2835    0.6587   18.6261 C.3     1  UNL1        0.1087
     13 C           3.6727    0.0503   19.9407 C.2     1  UNL1        0.2393
     14 O           3.2791    0.5557   21.2971 O.2     1  UNL1       -0.2738
     15 C           2.4324    1.8793   18.4369 C.ar    1  UNL1       -0.0134
     16 C           0.9387    1.7517   18.3865 C.ar    1  UNL1       -0.0038
     17 C           0.0877    2.9723   18.1974 C.ar    1  UNL1       -0.0003
     18 C           0.7303    4.3205   18.0586 C.ar    1  UNL1       -0.0000
     19 C           2.2241    4.4481   18.1091 C.ar    1  UNL1       -0.0003
     20 C           3.0750    3.2275   18.2982 C.ar    1  UNL1       -0.0038
     21 O           6.2155   -3.1533   25.6515 O.2     1  UNL1       -0.2682
     22 C           6.8896   -4.4235   25.2247 C.2     1  UNL1        0.2672
     23 N           6.9558   -4.7855   23.7706 N.am    1  UNL1       -0.2791
     24 H           7.3982   -5.6191   23.4905 H       1  UNL1        0.1552
     25 C           7.4974   -5.3319   26.2521 C.ar    1  UNL1        0.1348
     26 C           7.3820   -6.8196   26.1001 C.ar    1  UNL1        0.0238
     27 C           7.9899   -7.7279   27.1275 C.ar    1  UNL1        0.0033
     28 C           8.7131   -7.1483   28.3069 C.ar    1  UNL1        0.0207
     29 C           8.8285   -5.6605   28.4590 C.ar    1  UNL1        0.0990
     30 N           8.2207   -4.7523   27.4316 N.ar    1  UNL1       -0.2392
@<TRIPOS>BOND
     1    21    22    2
     2    22    23   am
     3    23     1    1
     4     1     2   ar
     5     2     3   ar
     6     3     4   ar
     7     4     8    1
     8     8     9   am
     9     9    10    2
    10     9    11    1
    11    11    12    1
    12    12    15    1
    13    15    16   ar
    14    16    17   ar
    15    17    18   ar
    16    18    19   ar
    17    19    20   ar
    18    12    13    1
    19    13    14    2
    20     4     5   ar
    21     5     6    1
    22     5     7   ar
    23    22    25    1
    24    25    26   ar
    25    26    27   ar
    26    27    28   ar
    27    28    29   ar
    28    29    30   ar
    29     7     1   ar
    30    30    25   ar
    31    13     8   am
    32    20    15   ar
    33    23    24    1
@<TRIPOS>MOLECULE
*****
 30 33 0 0 0
SMALL
GASTEIGER

@<TRIPOS>ATOM
      1 C           0.6285    1.7735   29.6467 C.ar    1  UNL1        0.0515
      2 C          -0.4027    0.8592   29.0546 C.ar    1  UNL1        0.0160
      3 C          -1.1705    1.2828   27.8377 C.ar    1  UNL1        0.0174
      4 C          -0.9071    2.6208   27.2129 C.ar    1  UNL1        0.0712
      5 C           0.1241    3.5352   27.8049 C.ar    1  UNL1        0.0729
      6 CL          0.3875    4.8731   27.1801 Cl      1  UNL1       -0.0809
      7 C           0.8919    3.1115   29.0218 C.ar    1  UNL1        0.0273
      8 N          -1.6750    3.0445   25.9959 N.am    1  UNL1       -0.2070
      9 C          -1.1518    3.0774   24.5905 C.2     1  UNL1        0.2360
     10 O           0.2311    2.6924   24.1552 O.2     1  UNL1       -0.2741
     11 C          -2.2543    3.5628   23.6967 C.3     1  UNL1        0.0995
     12 C          -3.4589    3.8299   24.5497 C.3     1  UNL1        0.1087
     13 C          -3.1008    3.5096   25.9707 C.2     1  UNL1        0.2393
     14 O          -4.0092    3.6327   27.1580 O.2     1  UNL1       -0.2738
     15 C          -4.7881    4.3297   24.0666 C.ar    1  UNL1       -0.0134
     16 C          -5.4387    5.5015   24.7400 C.ar    1  UNL1       -0.0038
     17 C          -6.7679    6.0013   24.2569 C.ar    1  UNL1       -0.0003
     18 C          -7.4465    5.3291   23.1004 C.ar    1  UNL1       -0.0000
     19 C          -6.7959    4.1572   22.4269 C.ar    1  UNL1       -0.0003
     20 C          -5.4668    3.6576   22.9100 C.ar    1  UNL1       -0.0038
     21 O           2.7099   -0.3765   29.4339 O.2     1  UNL1       -0.2682
     22 C           2.4371    0.2749   30.7572 C.2     1  UNL1        0.2672
     23 N           1.3964    1.3498   30.8636 N.am    1  UNL1       -0.2791
     24 H           1.2174    1.7774   31.7322 H       1  UNL1        0.1552
     25 C           3.2050   -0.1488   31.9742 C.ar    1  UNL1        0.1348
     26 C           3.5373    0.8547   33.0383 C.ar    1  UNL1        0.0238
     27 C           4.3051    0.4311   34.2552 C.ar    1  UNL1        0.0033
     28 C           4.7407   -0.9961   34.4080 C.ar    1  UNL1        0.0207
     29 C           4.4084   -1.9997   33.3438 C.ar    1  UNL1        0.0990
     30 N           3.6406   -1.5760   32.1269 N.ar    1  UNL1       -0.2392
@<TRIPOS>BOND
     1    21    22    2
     2    22    23   am
     3    23     1    1
     4     1     2   ar
     5     2     3   ar
     6     3     4   ar
     7     4     8    1
     8     8     9   am
     9     9    10    2
    10     9    11    1
    11    11    12    1
    12    12    15    1
    13    15    16   ar
    14    16    17   ar
    15    17    18   ar
    16    18    19   ar
    17    19    20   ar
    18    12    13    1
    19    13    14    2
    20     4     5   ar
    21     5     6    1
    22     5     7   ar
    23    22    25    1
    24    25    26   ar
    25    26    27   ar
    26    27    28   ar
    27    28    29   ar
    28    29    30   ar
    29     7     1   ar
    30    30    25   ar
    31    13     8   am
    32    20    15   ar
    33    23    24    1
@<TRIPOS>MOLECULE
*****
 30 33 0 0 0
SMALL
GASTEIGER

@<TRIPOS>ATOM
      1 C           6.2243   -3.2317   32.2614 C.ar    1  UNL1        0.0515
      2 C           4.8598   -3.2502   32.8840 C.ar    1  UNL1        0.0160
      3 C           4.4247   -2.1213   33.7707 C.ar    1  UNL1        0.0174
      4 C           5.3541   -0.9739   34.0347 C.ar    1  UNL1        0.0712
      5 C           6.7186   -0.9554   33.4120 C.ar    1  UNL1        0.0729
      6 CL          7.6481    0.1920   33.6760 Cl      1  UNL1       -0.0809
      7 C           7.1537   -2.0843   32.5254 C.ar    1  UNL1        0.0273
      8 N           4.9190    0.1551   34.9214 N.am    1  UNL1       -0.2070
      9 C           5.3825    0.4016   36.3266 C.2     1  UNL1        0.2360
     10 O           6.3625   -0.4376   37.0917 O.2     1  UNL1       -0.2741
     11 C           4.6940    1.6345   36.8323 C.3     1  UNL1        0.0995
     12 C           3.8049    2.1501   35.7396 C.3     1  UNL1        0.1087
     13 C           3.9440    1.2357   34.5587 C.2     1  UNL1        0.2393
     14 O           3.2329    1.3772   33.2455 O.2     1  UNL1       -0.2738
     15 C           2.9304    3.3664   35.8147 C.ar    1  UNL1       -0.0134
     16 C           2.0502    3.5847   37.0096 C.ar    1  UNL1       -0.0038
     17 C           1.1756    4.8010   37.0847 C.ar    1  UNL1       -0.0003
     18 C           1.1813    5.7990   35.9650 C.ar    1  UNL1       -0.0000
     19 C           2.0614    5.5808   34.7701 C.ar    1  UNL1       -0.0003
     20 C           2.9359    4.3645   34.6950 C.ar    1  UNL1       -0.0038
     21 O           6.2308   -2.8821   29.2818 O.2     1  UNL1       -0.2682
     22 C           6.6627   -4.1858   29.8849 C.2     1  UNL1        0.2672
     23 N           6.6594   -4.3607   31.3747 N.am    1  UNL1       -0.2791
     24 H           6.9428   -5.2164   31.7705 H       1  UNL1        0.1552
     25 C           7.0978   -5.3148   28.9982 C.ar    1  UNL1        0.1348
     26 C           6.5029   -5.4657   27.6296 C.ar    1  UNL1        0.0238
     27 C           6.9380   -6.5946   26.7429 C.ar    1  UNL1        0.0033
     28 C           7.9681   -7.5726   27.2249 C.ar    1  UNL1        0.0207
     29 C           8.5630   -7.4218   28.5936 C.ar    1  UNL1        0.0990
     30 N           8.1279   -6.2929   29.4802 N.ar    1  UNL1       -0.2392
@<TRIPOS>BOND
     1    21    22    2
     2    22    23   am
     3    23     1    1
     4     1     2   ar
     5     2     3   ar
     6     3     4   ar
     7     4     8    1
     8     8     9   am
     9     9    10    2
    10     9    11    1
    11    11    12    1
    12    12    15    1
    13    15    16   ar
    14    16    17   ar
    15    17    18   ar
    16    18    19   ar
    17    19    20   ar
    18    12    13    1
    19    13    14    2
    20     4     5   ar
    21     5     6    1
    22     5     7   ar
    23    22    25    1
    24    25    26   ar
    25    26    27   ar
    26    27    28   ar
    27    28    29   ar
    28    29    30   ar
    29     7     1   ar
    30    30    25   ar
    31    13     8   am
    32    20    15   ar
    33    23    24    1
@<TRIPOS>MOLECULE
*****
 30 33 0 0 0
SMALL
GASTEIGER

@<TRIPOS>ATOM
      1 C           0.7662    2.0127   25.4399 C.ar    1  UNL1        0.0515
      2 C           1.8245    2.8775   26.0580 C.ar    1  UNL1        0.0160
      3 C           1.8784    3.0481   27.5472 C.ar    1  UNL1        0.0174
      4 C           0.8738    2.3539   28.4185 C.ar    1  UNL1        0.0712
      5 C          -0.1845    1.4891   27.8004 C.ar    1  UNL1        0.0729
      6 CL         -1.1890    0.7949   28.6717 Cl      1  UNL1       -0.0809
      7 C          -0.2383    1.3185   26.3112 C.ar    1  UNL1        0.0273
      8 N           0.9277    2.5246   29.9078 N.am    1  UNL1       -0.2070
      9 C           1.3232    1.4732   30.9020 C.2     1  UNL1        0.2360
     10 O           1.7343    0.0667   30.5814 O.2     1  UNL1       -0.2741
     11 C           1.2355    2.0753   32.2730 C.3     1  UNL1        0.0995
     12 C           0.7858    3.4988   32.1262 C.3     1  UNL1        0.1087
     13 C           0.5956    3.7764   30.6644 C.2     1  UNL1        0.2393
     14 O           0.1512    5.0775   30.0646 O.2     1  UNL1       -0.2738
     15 C           0.5650    4.4735   33.2448 C.ar    1  UNL1       -0.0134
     16 C           1.5213    4.5191   34.3995 C.ar    1  UNL1       -0.0038
     17 C           1.3005    5.4938   35.5181 C.ar    1  UNL1       -0.0003
     18 C           0.1236    6.4229   35.4819 C.ar    1  UNL1       -0.0000
     19 C          -0.8328    6.3774   34.3271 C.ar    1  UNL1       -0.0003
     20 C          -0.6120    5.4027   33.2086 C.ar    1  UNL1       -0.0038
     21 O           2.4122   -0.1159   24.1134 O.2     1  UNL1       -0.2682
     22 C           1.5353    0.7778   23.2874 C.2     1  UNL1        0.2672
     23 N           0.7123    1.8421   23.9506 N.am    1  UNL1       -0.2791
     24 H           0.1368    2.4286   23.4084 H       1  UNL1        0.1552
     25 C           1.4814    0.6071   21.7980 C.ar    1  UNL1        0.1348
     26 C           2.2419   -0.5074   21.1428 C.ar    1  UNL1        0.0238
     27 C           2.1880   -0.6780   19.6536 C.ar    1  UNL1        0.0033
     28 C           1.3736    0.2660   18.8195 C.ar    1  UNL1        0.0207
     29 C           0.6132    1.3805   19.4747 C.ar    1  UNL1        0.0990
     30 N           0.6671    1.5511   20.9640 N.ar    1  UNL1       -0.2392
@<TRIPOS>BOND
     1    21    22    2
     2    22    23   am
     3    23     1    1
     4     1     2   ar
     5     2     3   ar
     6     3     4   ar
     7     4     8    1
     8     8     9   am
     9     9    10    2
    10     9    11    1
    11    11    12    1
    12    12    15    1
    13    15    16   ar
    14    16    17   ar
    15    17    18   ar
    16    18    19   ar
    17    19    20   ar
    18    12    13    1
    19    13    14    2
    20     4     5   ar
    21     5     6    1
    22     5     7   ar
    23    22    25    1
    24    25    26   ar
    25    26    27   ar
    26    27    28   ar
    27    28    29   ar
    28    29    30   ar
    29     7     1   ar
    30    30    25   ar
    31    13     8   am
    32    20    15   ar
    33    23    24    1
@<TRIPOS>MOLECULE
*****
 30 33 0 0 0
SMALL
GASTEIGER

@<TRIPOS>ATOM
      1 C          -1.7957    3.9390   21.6061 C.ar    1  UNL1        0.0515
      2 C          -0.8884    3.3438   22.6417 C.ar    1  UNL1        0.0160
      3 C           0.3340    2.5836   22.2200 C.ar    1  UNL1        0.0174
      4 C           0.6490    2.4186   20.7628 C.ar    1  UNL1        0.0712
      5 C          -0.2583    3.0138   19.7272 C.ar    1  UNL1        0.0729
      6 CL          0.0567    2.8488   18.2700 Cl      1  UNL1       -0.0809
      7 C          -1.4807    3.7740   20.1489 C.ar    1  UNL1        0.0273
      8 N           1.8715    1.6583   20.3411 N.am    1  UNL1       -0.2070
      9 C           3.2347    2.2395   20.1091 C.2     1  UNL1        0.2360
     10 O           3.6149    3.6828   20.2580 O.2     1  UNL1       -0.2741
     11 C           4.1511    1.1238   19.7020 C.3     1  UNL1        0.0995
     12 C           3.3541   -0.1468   19.6825 C.3     1  UNL1        0.1087
     13 C           1.9453    0.1835   20.0775 C.2     1  UNL1        0.2393
     14 O           0.8096   -0.7900   20.1892 O.2     1  UNL1       -0.2738
     15 C           3.8746   -1.5087   19.3299 C.ar    1  UNL1       -0.0134
     16 C           3.1871   -2.7337   19.8559 C.ar    1  UNL1       -0.0038
     17 C           3.7076   -4.0956   19.5033 C.ar    1  UNL1       -0.0003
     18 C           4.9156   -4.2324   18.6247 C.ar    1  UNL1       -0.0000
     19 C           5.6032   -3.0074   18.0987 C.ar    1  UNL1       -0.0003
     20 C           5.0827   -1.6456   18.4514 C.ar    1  UNL1       -0.0038
     21 O          -4.4943    2.6355   21.4694 O.2     1  UNL1       -0.2682
     22 C          -4.3674    4.0475   21.9594 C.2     1  UNL1        0.2672
     23 N          -3.0181    4.6993   22.0278 N.am    1  UNL1       -0.2791
     24 H          -2.9349    5.6260   22.3494 H       1  UNL1        0.1552
     25 C          -5.5898    4.8078   22.3811 C.ar    1  UNL1        0.1348
     26 C          -6.5379    4.2102   23.3781 C.ar    1  UNL1        0.0238
     27 C          -7.7602    4.9705   23.7997 C.ar    1  UNL1        0.0033
     28 C          -8.0345    6.3283   23.2243 C.ar    1  UNL1        0.0207
     29 C          -7.0865    6.9258   22.2273 C.ar    1  UNL1        0.0990
     30 N          -5.8641    6.1656   21.8057 N.ar    1  UNL1       -0.2392
@<TRIPOS>BOND
     1    21    22    2
     2    22    23   am
     3    23     1    1
     4     1     2   ar
     5     2     3   ar
     6     3     4   ar
     7     4     8    1
     8     8     9   am
     9     9    10    2
    10     9    11    1
    11    11    12    1
    12    12    15    1
    13    15    16   ar
    14    16    17   ar
    15    17    18   ar
    16    18    19   ar
    17    19    20   ar
    18    12    13    1
    19    13    14    2
    20     4     5   ar
    21     5     6    1
    22     5     7   ar
    23    22    25    1
    24    25    26   ar
    25    26    27   ar
    26    27    28   ar
    27    28    29   ar
    28    29    30   ar
    29     7     1   ar
    30    30    25   ar
    31    13     8   am
    32    20    15   ar
    33    23    24    1
@<TRIPOS>MOLECULE
*****
 30 33 0 0 0
SMALL
GASTEIGER

@<TRIPOS>ATOM
      1 C           0.8304    2.7506   31.0047 C.ar    1  UNL1        0.0515
      2 C           1.4622    3.6762   30.0077 C.ar    1  UNL1        0.0160
      3 C           1.4626    3.3215   28.5503 C.ar    1  UNL1        0.0174
      4 C           0.8312    2.0411   28.0899 C.ar    1  UNL1        0.0712
      5 C           0.1995    1.1154   29.0869 C.ar    1  UNL1        0.0729
      6 CL         -0.4319   -0.1649   28.6265 Cl      1  UNL1       -0.0809
      7 C           0.1991    1.4702   30.5443 C.ar    1  UNL1        0.0273
      8 N           0.8316    1.6863   26.6324 N.am    1  UNL1       -0.2070
      9 C          -0.2766    1.9579   25.6586 C.2     1  UNL1        0.2360
     10 O          -1.5796    2.6318   25.9712 O.2     1  UNL1       -0.2741
     11 C           0.1471    1.4372   24.3172 C.3     1  UNL1        0.0995
     12 C           1.5172    0.8438   24.4620 C.3     1  UNL1        0.1087
     13 C           1.9402    0.9978   25.8928 C.2     1  UNL1        0.2393
     14 O           3.2430    0.5430   26.4809 O.2     1  UNL1       -0.2738
     15 C           2.3228    0.2080   23.3680 C.ar    1  UNL1       -0.0134
     16 C           3.1545   -1.0062   23.6577 C.ar    1  UNL1       -0.0038
     17 C           3.9601   -1.6420   22.5636 C.ar    1  UNL1       -0.0003
     18 C           3.9339   -1.0635   21.1800 C.ar    1  UNL1       -0.0000
     19 C           3.1022    0.1508   20.8902 C.ar    1  UNL1       -0.0003
     20 C           2.2967    0.7864   21.9842 C.ar    1  UNL1       -0.0038
     21 O           3.2434    2.1707   32.6904 O.2     1  UNL1       -0.2682
     22 C           2.0365    2.8154   33.3050 C.2     1  UNL1        0.2672
     23 N           0.8300    3.1054   32.4622 N.am    1  UNL1       -0.2791
     24 H           0.0379    3.5285   32.8656 H       1  UNL1        0.1552
     25 C           2.0361    3.1702   34.7625 C.ar    1  UNL1        0.1348
     26 C           1.5015    4.4979   35.2111 C.ar    1  UNL1        0.0238
     27 C           1.5012    4.8526   36.6685 C.ar    1  UNL1        0.0033
     28 C           2.0353    3.8795   37.6773 C.ar    1  UNL1        0.0207
     29 C           2.5699    2.5518   37.2288 C.ar    1  UNL1        0.0990
     30 N           2.5703    2.1971   35.7713 N.ar    1  UNL1       -0.2392
@<TRIPOS>BOND
     1    21    22    2
     2    22    23   am
     3    23     1    1
     4     1     2   ar
     5     2     3   ar
     6     3     4   ar
     7     4     8    1
     8     8     9   am
     9     9    10    2
    10     9    11    1
    11    11    12    1
    12    12    15    1
    13    15    16   ar
    14    16    17   ar
    15    17    18   ar
    16    18    19   ar
    17    19    20   ar
    18    12    13    1
    19    13    14    2
    20     4     5   ar
    21     5     6    1
    22     5     7   ar
    23    22    25    1
    24    25    26   ar
    25    26    27   ar
    26    27    28   ar
    27    28    29   ar
    28    29    30   ar
    29     7     1   ar
    30    30    25   ar
    31    13     8   am
    32    20    15   ar
    33    23    24    1
@<TRIPOS>MOLECULE
*****
 30 33 0 0 0
SMALL
GASTEIGER

@<TRIPOS>ATOM
      1 C          -2.2852    3.9022   24.0290 C.ar    1  UNL1        0.0515
      2 C          -1.5582    2.9960   24.9777 C.ar    1  UNL1        0.0160
      3 C          -0.3350    2.2577   24.5209 C.ar    1  UNL1        0.0174
      4 C           0.1612    2.4257   23.1153 C.ar    1  UNL1        0.0712
      5 C          -0.5658    3.3319   22.1666 C.ar    1  UNL1        0.0729
      6 CL         -0.0697    3.4999   20.7610 Cl      1  UNL1       -0.0809
      7 C          -1.7890    4.0702   22.6234 C.ar    1  UNL1        0.0273
      8 N           1.3844    1.6873   22.6585 N.am    1  UNL1       -0.2070
      9 C           2.7858    1.9196   23.1405 C.2     1  UNL1        0.2360
     10 O           3.2099    2.9309   24.1639 O.2     1  UNL1       -0.2741
     11 C           3.6885    0.9630   22.4195 C.3     1  UNL1        0.0995
     12 C           2.8451    0.1395   21.4918 C.3     1  UNL1        0.1087
     13 C           1.4211    0.5872   21.6396 C.2     1  UNL1        0.2393
     14 O           0.2410    0.0321   20.8985 O.2     1  UNL1       -0.2738
     15 C           3.3389   -0.9418   20.5770 C.ar    1  UNL1       -0.0134
     16 C           3.7334   -2.2761   21.1374 C.ar    1  UNL1       -0.0038
     17 C           4.2273   -3.3574   20.2225 C.ar    1  UNL1       -0.0003
     18 C           4.3267   -3.1044   18.7475 C.ar    1  UNL1       -0.0000
     19 C           3.9322   -1.7701   18.1870 C.ar    1  UNL1       -0.0003
     20 C           3.4383   -0.6889   19.1018 C.ar    1  UNL1       -0.0038
     21 O          -5.0109    2.7829   23.4651 O.2     1  UNL1       -0.2682
     22 C          -4.8713    4.0809   24.2038 C.2     1  UNL1        0.2672
     23 N          -3.5085    4.6405   24.4858 N.am    1  UNL1       -0.2791
     24 H          -3.4168    5.4924   24.9706 H       1  UNL1        0.1552
     25 C          -6.0945    4.8192   24.6606 C.ar    1  UNL1        0.1348
     26 C          -7.3396    4.7973   23.8245 C.ar    1  UNL1        0.0238
     27 C          -8.5628    5.5356   24.2813 C.ar    1  UNL1        0.0033
     28 C          -8.5408    6.2958   25.5743 C.ar    1  UNL1        0.0207
     29 C          -7.2957    6.3176   26.4104 C.ar    1  UNL1        0.0990
     30 N          -6.0726    5.5793   25.9536 N.ar    1  UNL1       -0.2392
@<TRIPOS>BOND
     1    21    22    2
     2    22    23   am
     3    23     1    1
     4     1     2   ar
     5     2     3   ar
     6     3     4   ar
     7     4     8    1
     8     8     9   am
     9     9    10    2
    10     9    11    1
    11    11    12    1
    12    12    15    1
    13    15    16   ar
    14    16    17   ar
    15    17    18   ar
    16    18    19   ar
    17    19    20   ar
    18    12    13    1
    19    13    14    2
    20     4     5   ar
    21     5     6    1
    22     5     7   ar
    23    22    25    1
    24    25    26   ar
    25    26    27   ar
    26    27    28   ar
    27    28    29   ar
    28    29    30   ar
    29     7     1   ar
    30    30    25   ar
    31    13     8   am
    32    20    15   ar
    33    23    24    1
