@<TRIPOS>MOLECULE
*****
 33 36 0 0 0
SMALL
GASTEIGER

@<TRIPOS>ATOM
      1 C          -9.9671  -20.0369   19.1621 C.3     1  UNL1        0.0203
      2 C          -9.4718  -19.4078   20.4306 C.3     1  UNL1        0.0888
      3 N          -8.0143  -19.4705   20.7794 N.3     1  UNL1       -0.2713
      4 C          -7.5722  -20.1665   22.0325 C.3     1  UNL1        0.0749
      5 C          -6.1147  -20.2291   22.3813 C.3     1  UNL1        0.0485
      6 C          -5.0992  -19.5958   21.4771 C.3     1  UNL1        0.1096
      7 O          -4.1955  -20.1372   22.5449 O.3     1  UNL1       -0.3826
      8 C          -5.5413  -18.8998   20.2240 C.3     1  UNL1        0.0485
      9 C          -6.9988  -18.8371   19.8752 C.3     1  UNL1        0.0749
     10 H          -4.7265  -20.5878   23.2201 H       1  UNL1        0.2107
     11 C          -3.7699  -19.1504   20.9437 C.ar    1  UNL1        0.0019
     12 C          -2.6381  -18.8718   21.8878 C.ar    1  UNL1        0.0003
     13 C          -1.3088  -18.4265   21.3545 C.ar    1  UNL1        0.0294
     14 C          -1.1112  -18.2598   19.8769 C.ar    1  UNL1        0.1401
     15 F           0.2182  -17.8144   19.3436 F       1  UNL1       -0.2042
     16 C          -2.2429  -18.5384   18.9328 C.ar    1  UNL1        0.0294
     17 C          -3.5723  -18.9837   19.4662 C.ar    1  UNL1        0.0003
     18 C         -10.4340  -18.7162   21.3502 C.3     1  UNL1        0.1472
     19 O         -11.8765  -18.5801   20.9619 O.3     1  UNL1       -0.3787
     20 H         -12.3571  -18.1117   21.6623 H       1  UNL1        0.2108
     21 C          -9.9538  -18.1607   22.6583 C.ar    1  UNL1        0.0054
     22 C         -10.3941  -18.7893   23.9470 C.ar    1  UNL1       -0.0007
     23 C          -9.9139  -18.2337   25.2549 C.ar    1  UNL1        0.0142
     24 C          -8.9934  -17.0496   25.2741 C.ar    1  UNL1        0.0491
     25 C          -8.5531  -16.4209   23.9853 C.ar    1  UNL1        0.0108
     26 C          -9.0333  -16.9765   22.6774 C.ar    1  UNL1       -0.0033
     27 C          -7.6326  -15.2367   24.0045 C.3     1  UNL1        0.1189
     28 N          -7.1524  -14.6812   25.3124 N.am    1  UNL1       -0.2846
     29 C          -7.5926  -15.3098   26.6013 C.2     1  UNL1        0.3047
     30 O          -7.1124  -14.7543   27.9092 O.2     1  UNL1       -0.2525
     31 N          -8.5131  -16.4940   26.5821 N.am    1  UNL1       -0.2685
     32 H          -6.5482  -13.9039   25.3250 H       1  UNL1        0.1513
     33 H          -8.8021  -16.9066   27.4280 H       1  UNL1        0.1564
@<TRIPOS>BOND
     1     1     2    1
     2     2    18    1
     3    18    19    1
     4    18    21    1
     5    21    22   ar
     6    22    23   ar
     7    23    24   ar
     8    24    25   ar
     9    25    26   ar
    10    25    27    1
    11    27    28    1
    12    28    29   am
    13    29    30    2
    14    29    31   am
    15     2     3    1
    16     3     4    1
    17     4     5    1
    18     5     6    1
    19     6     7    1
    20     6    11    1
    21    11    12   ar
    22    12    13   ar
    23    13    14   ar
    24    14    15    1
    25    14    16   ar
    26    16    17   ar
    27     6     8    1
    28     8     9    1
    29    26    21   ar
    30     9     3    1
    31    31    24    1
    32    17    11   ar
    33    19    20    1
    34    28    32    1
    35    31    33    1
    36     7    10    1
@<TRIPOS>MOLECULE
*****
 33 36 0 0 0
SMALL
GASTEIGER

@<TRIPOS>ATOM
      1 C          -9.6843   -2.9050   16.0360 C.3     1  UNL1        0.0203
      2 C         -10.4731   -2.8058   17.3080 C.3     1  UNL1        0.0888
      3 N         -11.3888   -1.6394   17.5336 N.3     1  UNL1       -0.2713
      4 C         -11.0740   -0.3086   16.9174 C.3     1  UNL1        0.0749
      5 C         -11.9897    0.8578   17.1430 C.3     1  UNL1        0.0485
      6 C         -13.2203    0.6934   17.9847 C.3     1  UNL1        0.1096
      7 O         -13.3483    2.1419   17.6164 O.3     1  UNL1       -0.3826
      8 C         -13.5352   -0.6375   18.6009 C.3     1  UNL1        0.0485
      9 C         -12.6195   -1.8039   18.3754 C.3     1  UNL1        0.0749
     10 H         -12.6002    2.4002   17.0555 H       1  UNL1        0.2107
     11 C         -14.4954    1.0320   18.6986 C.ar    1  UNL1        0.0019
     12 C         -14.9298    2.4626   18.8202 C.ar    1  UNL1        0.0003
     13 C         -16.2048    2.8012   19.5340 C.ar    1  UNL1        0.0294
     14 C         -17.0455    1.7092   20.1263 C.ar    1  UNL1        0.1401
     15 F         -18.3206    2.0478   20.8401 F       1  UNL1       -0.2042
     16 C         -16.6112    0.2786   20.0047 C.ar    1  UNL1        0.0294
     17 C         -15.3361   -0.0600   19.2908 C.ar    1  UNL1        0.0003
     18 C         -10.3461   -3.8730   18.3544 C.3     1  UNL1        0.1472
     19 O          -9.3891   -3.6943   19.4956 O.3     1  UNL1       -0.3787
     20 H          -9.4303   -4.4700   20.0766 H       1  UNL1        0.2108
     21 C         -11.1761   -5.1189   18.2597 C.ar    1  UNL1        0.0054
     22 C         -10.6711   -6.2992   17.4840 C.ar    1  UNL1       -0.0007
     23 C         -11.5011   -7.5451   17.3893 C.ar    1  UNL1        0.0142
     24 C         -12.8360   -7.6105   18.0703 C.ar    1  UNL1        0.0491
     25 C         -13.3410   -6.4302   18.8459 C.ar    1  UNL1        0.0108
     26 C         -12.5110   -5.1843   18.9406 C.ar    1  UNL1       -0.0033
     27 C         -14.6759   -6.4956   19.5269 C.3     1  UNL1        0.1189
     28 N         -15.5058   -7.7414   19.4322 N.am    1  UNL1       -0.2846
     29 C         -15.0009   -8.9219   18.6565 C.2     1  UNL1        0.3047
     30 O         -15.8309  -10.1677   18.5617 O.2     1  UNL1       -0.2525
     31 N         -13.6660   -8.8564   17.9755 N.am    1  UNL1       -0.2685
     32 H         -16.3820   -7.7844   19.8791 H       1  UNL1        0.1513
     33 H         -13.3346   -9.6312   17.4664 H       1  UNL1        0.1564
@<TRIPOS>BOND
     1     1     2    1
     2     2    18    1
     3    18    19    1
     4    18    21    1
     5    21    22   ar
     6    22    23   ar
     7    23    24   ar
     8    24    25   ar
     9    25    26   ar
    10    25    27    1
    11    27    28    1
    12    28    29   am
    13    29    30    2
    14    29    31   am
    15     2     3    1
    16     3     4    1
    17     4     5    1
    18     5     6    1
    19     6     7    1
    20     6    11    1
    21    11    12   ar
    22    12    13   ar
    23    13    14   ar
    24    14    15    1
    25    14    16   ar
    26    16    17   ar
    27     6     8    1
    28     8     9    1
    29    26    21   ar
    30     9     3    1
    31    31    24    1
    32    17    11   ar
    33    19    20    1
    34    28    32    1
    35    31    33    1
    36     7    10    1
@<TRIPOS>MOLECULE
*****
 33 36 0 0 0
SMALL
GASTEIGER

@<TRIPOS>ATOM
      1 C         -10.4572  -20.2769   20.8937 C.3     1  UNL1        0.0203
      2 C          -9.4460  -19.1720   20.9749 C.3     1  UNL1        0.0888
      3 N          -7.9968  -19.4612   20.7174 N.3     1  UNL1       -0.2713
      4 C          -7.5773  -20.8173   20.2328 C.3     1  UNL1        0.0749
      5 C          -6.1281  -21.1066   19.9753 C.3     1  UNL1        0.0485
      6 C          -5.0985  -20.0397   20.2025 C.3     1  UNL1        0.1096
      7 O          -4.2148  -21.1605   19.7411 O.3     1  UNL1       -0.3826
      8 C          -5.5180  -18.6835   20.6872 C.3     1  UNL1        0.0485
      9 C          -6.9672  -18.3943   20.9447 C.3     1  UNL1        0.0749
     10 H          -4.7567  -21.9421   19.5506 H       1  UNL1        0.2107
     11 C          -3.7619  -19.3621   20.2695 C.ar    1  UNL1        0.0019
     12 C          -3.1267  -18.8311   19.0187 C.ar    1  UNL1        0.0003
     13 C          -1.7902  -18.1535   19.0856 C.ar    1  UNL1        0.0294
     14 C          -1.0889  -18.0068   20.4035 C.ar    1  UNL1        0.1401
     15 F           0.2476  -17.3292   20.4704 F       1  UNL1       -0.2042
     16 C          -1.7241  -18.5378   21.6543 C.ar    1  UNL1        0.0294
     17 C          -3.0606  -19.2154   21.5873 C.ar    1  UNL1        0.0003
     18 C          -9.8839  -17.7779   21.3135 C.3     1  UNL1        0.1472
     19 O         -10.9893  -17.1290   20.5344 O.3     1  UNL1       -0.3787
     20 H         -11.1468  -16.2360   20.8791 H       1  UNL1        0.2108
     21 C          -9.2164  -17.0327   22.4312 C.ar    1  UNL1        0.0054
     22 C          -8.3422  -15.8520   22.1284 C.ar    1  UNL1       -0.0007
     23 C          -7.6748  -15.1068   23.2461 C.ar    1  UNL1        0.0142
     24 C          -7.8815  -15.5424   24.6665 C.ar    1  UNL1        0.0491
     25 C          -8.7556  -16.7232   24.9692 C.ar    1  UNL1        0.0108
     26 C          -9.4231  -17.4683   23.8516 C.ar    1  UNL1       -0.0033
     27 C          -8.9623  -17.1587   26.3896 C.3     1  UNL1        0.1189
     28 N          -8.2948  -16.4136   27.5073 N.am    1  UNL1       -0.2846
     29 C          -7.4206  -15.2328   27.2046 C.2     1  UNL1        0.3047
     30 O          -6.7532  -14.4876   28.3223 O.2     1  UNL1       -0.2525
     31 N          -7.2140  -14.7972   25.7842 N.am    1  UNL1       -0.2685
     32 H          -8.4305  -16.6995   28.4396 H       1  UNL1        0.1513
     33 H          -6.6402  -14.0222   25.5855 H       1  UNL1        0.1564
@<TRIPOS>BOND
     1     1     2    1
     2     2    18    1
     3    18    19    1
     4    18    21    1
     5    21    22   ar
     6    22    23   ar
     7    23    24   ar
     8    24    25   ar
     9    25    26   ar
    10    25    27    1
    11    27    28    1
    12    28    29   am
    13    29    30    2
    14    29    31   am
    15     2     3    1
    16     3     4    1
    17     4     5    1
    18     5     6    1
    19     6     7    1
    20     6    11    1
    21    11    12   ar
    22    12    13   ar
    23    13    14   ar
    24    14    15    1
    25    14    16   ar
    26    16    17   ar
    27     6     8    1
    28     8     9    1
    29    26    21   ar
    30     9     3    1
    31    31    24    1
    32    17    11   ar
    33    19    20    1
    34    28    32    1
    35    31    33    1
    36     7    10    1
@<TRIPOS>MOLECULE
*****
 33 36 0 0 0
SMALL
GASTEIGER

@<TRIPOS>ATOM
      1 C           0.0526    1.6111   24.9715 C.3     1  UNL1        0.0203
      2 C          -0.1382    2.3653   23.6890 C.3     1  UNL1        0.0888
      3 N           0.3287    1.7715   22.3931 N.3     1  UNL1       -0.2713
      4 C          -0.3784    2.1110   21.1146 C.3     1  UNL1        0.0749
      5 C           0.0885    1.5171   19.8187 C.3     1  UNL1        0.0485
      6 C           1.2625    0.5837   19.8013 C.3     1  UNL1        0.1096
      7 O           0.9220    0.6012   18.3406 O.3     1  UNL1       -0.3826
      8 C           1.9696    0.2440   21.0799 C.3     1  UNL1        0.0485
      9 C           1.5027    0.8379   22.3758 C.3     1  UNL1        0.0749
     10 H           0.1584    1.1810   18.1935 H       1  UNL1        0.2107
     11 C           2.3183   -0.3438   19.2767 C.ar    1  UNL1        0.0019
     12 C           3.0705    0.0064   18.0271 C.ar    1  UNL1        0.0003
     13 C           4.1262   -0.9209   17.5024 C.ar    1  UNL1        0.0294
     14 C           4.4298   -2.1986   18.2274 C.ar    1  UNL1        0.1401
     15 F           5.4855   -3.1260   17.7027 F       1  UNL1       -0.2042
     16 C           3.6775   -2.5488   19.4769 C.ar    1  UNL1        0.0294
     17 C           2.6217   -1.6214   20.0016 C.ar    1  UNL1        0.0003
     18 C          -0.7959    3.7134   23.7024 C.3     1  UNL1        0.1472
     19 O           0.0210    4.9488   23.4647 O.3     1  UNL1       -0.3787
     20 H          -0.5535    5.7293   23.5065 H       1  UNL1        0.2108
     21 C          -2.2704    3.8260   23.9535 C.ar    1  UNL1        0.0054
     22 C          -2.7948    3.8171   25.3588 C.ar    1  UNL1       -0.0007
     23 C          -4.2693    3.9298   25.6099 C.ar    1  UNL1        0.0142
     24 C          -5.2195    4.0514   24.4556 C.ar    1  UNL1        0.0491
     25 C          -4.6952    4.0603   23.0503 C.ar    1  UNL1        0.0108
     26 C          -3.2206    3.9476   22.7992 C.ar    1  UNL1       -0.0033
     27 C          -5.6454    4.1819   21.8960 C.3     1  UNL1        0.1189
     28 N          -7.1199    4.2946   22.1471 N.am    1  UNL1       -0.2846
     29 C          -7.6443    4.2856   23.5524 C.2     1  UNL1        0.3047
     30 O          -9.1188    4.3983   23.8035 O.2     1  UNL1       -0.2525
     31 N          -6.6941    4.1640   24.7067 N.am    1  UNL1       -0.2685
     32 H          -7.7435    4.3744   21.3895 H       1  UNL1        0.1513
     33 H          -7.0382    4.1582   25.6291 H       1  UNL1        0.1564
@<TRIPOS>BOND
     1     1     2    1
     2     2    18    1
     3    18    19    1
     4    18    21    1
     5    21    22   ar
     6    22    23   ar
     7    23    24   ar
     8    24    25   ar
     9    25    26   ar
    10    25    27    1
    11    27    28    1
    12    28    29   am
    13    29    30    2
    14    29    31   am
    15     2     3    1
    16     3     4    1
    17     4     5    1
    18     5     6    1
    19     6     7    1
    20     6    11    1
    21    11    12   ar
    22    12    13   ar
    23    13    14   ar
    24    14    15    1
    25    14    16   ar
    26    16    17   ar
    27     6     8    1
    28     8     9    1
    29    26    21   ar
    30     9     3    1
    31    31    24    1
    32    17    11   ar
    33    19    20    1
    34    28    32    1
    35    31    33    1
    36     7    10    1
@<TRIPOS>MOLECULE
*****
 33 36 0 0 0
SMALL
GASTEIGER

@<TRIPOS>ATOM
      1 C          -0.4925    5.4337   18.9197 C.3     1  UNL1        0.0203
      2 C          -1.0383    4.0502   18.7241 C.3     1  UNL1        0.0888
      3 N          -0.2274    2.8584   19.1390 N.3     1  UNL1       -0.2713
      4 C          -0.3798    2.2913   20.5192 C.3     1  UNL1        0.0749
      5 C           0.4311    1.0995   20.9340 C.3     1  UNL1        0.0485
      6 C           1.3944    0.4749   19.9687 C.3     1  UNL1        0.1096
      7 O           1.6015   -0.4168   21.1570 O.3     1  UNL1       -0.3826
      8 C           1.5468    1.0421   18.5884 C.3     1  UNL1        0.0485
      9 C           0.7359    2.2339   18.1735 C.3     1  UNL1        0.0749
     10 H           1.0275   -0.1265   21.8831 H       1  UNL1        0.2107
     11 C           2.4296   -0.4594   19.4160 C.ar    1  UNL1        0.0019
     12 C           3.0902   -0.1555   18.1041 C.ar    1  UNL1        0.0003
     13 C           4.1254   -1.0897   17.5513 C.ar    1  UNL1        0.0294
     14 C           4.5001   -2.3279   18.3107 C.ar    1  UNL1        0.1401
     15 F           5.5353   -3.2621   17.7580 F       1  UNL1       -0.2042
     16 C           3.8395   -2.6318   19.6226 C.ar    1  UNL1        0.0294
     17 C           2.8043   -1.6975   20.1753 C.ar    1  UNL1        0.0003
     18 C          -2.3950    3.8586   18.1137 C.3     1  UNL1        0.1472
     19 O          -2.5197    3.4568   16.6739 O.3     1  UNL1       -0.3787
     20 H          -3.4578    3.3767   16.4406 H       1  UNL1        0.2108
     21 C          -3.6271    4.0688   18.9431 C.ar    1  UNL1        0.0054
     22 C          -4.8188    4.7630   18.3533 C.ar    1  UNL1       -0.0007
     23 C          -6.0508    4.9732   19.1827 C.ar    1  UNL1        0.0142
     24 C          -6.0912    4.4890   20.6018 C.ar    1  UNL1        0.0491
     25 C          -4.8995    3.7947   21.1916 C.ar    1  UNL1        0.0108
     26 C          -3.6675    3.5846   20.3622 C.ar    1  UNL1       -0.0033
     27 C          -4.9398    3.3106   22.6107 C.3     1  UNL1        0.1189
     28 N          -6.1719    3.5207   23.4401 N.am    1  UNL1       -0.2846
     29 C          -7.3636    4.2150   22.8504 C.2     1  UNL1        0.3047
     30 O          -8.5956    4.4252   23.6798 O.2     1  UNL1       -0.2525
     31 N          -7.3233    4.6992   21.4312 N.am    1  UNL1       -0.2685
     32 H          -6.1983    3.2030   24.3716 H       1  UNL1        0.1513
     33 H          -8.1054    5.1549   21.0441 H       1  UNL1        0.1564
@<TRIPOS>BOND
     1     1     2    1
     2     2    18    1
     3    18    19    1
     4    18    21    1
     5    21    22   ar
     6    22    23   ar
     7    23    24   ar
     8    24    25   ar
     9    25    26   ar
    10    25    27    1
    11    27    28    1
    12    28    29   am
    13    29    30    2
    14    29    31   am
    15     2     3    1
    16     3     4    1
    17     4     5    1
    18     5     6    1
    19     6     7    1
    20     6    11    1
    21    11    12   ar
    22    12    13   ar
    23    13    14   ar
    24    14    15    1
    25    14    16   ar
    26    16    17   ar
    27     6     8    1
    28     8     9    1
    29    26    21   ar
    30     9     3    1
    31    31    24    1
    32    17    11   ar
    33    19    20    1
    34    28    32    1
    35    31    33    1
    36     7    10    1
@<TRIPOS>MOLECULE
*****
 33 36 0 0 0
SMALL
GASTEIGER

@<TRIPOS>ATOM
      1 C           4.2338   -4.9605   18.9727 C.3     1  UNL1        0.0203
      2 C           5.1198   -3.8429   19.4376 C.3     1  UNL1        0.0888
      3 N           5.8306   -3.9475   20.7544 N.3     1  UNL1       -0.2713
      4 C           7.3067   -4.2119   20.7909 C.3     1  UNL1        0.0749
      5 C           8.0175   -4.3165   22.1077 C.3     1  UNL1        0.0485
      6 C           7.2523   -4.1567   23.3878 C.3     1  UNL1        0.1096
      7 O           8.6286   -4.3943   23.9350 O.3     1  UNL1       -0.3826
      8 C           5.7762   -3.8923   23.3513 C.3     1  UNL1        0.0485
      9 C           5.0653   -3.7877   22.0346 C.3     1  UNL1        0.0749
     10 H           9.2511   -4.5189   23.2016 H       1  UNL1        0.2107
     11 C           6.9650   -4.0794   24.8581 C.ar    1  UNL1        0.0019
     12 C           7.1289   -5.2965   25.7193 C.ar    1  UNL1        0.0003
     13 C           6.8416   -5.2193   27.1895 C.ar    1  UNL1        0.0294
     14 C           6.3905   -3.9248   27.7985 C.ar    1  UNL1        0.1401
     15 F           6.1033   -3.8476   29.2687 F       1  UNL1       -0.2042
     16 C           6.2267   -2.7077   26.9373 C.ar    1  UNL1        0.0294
     17 C           6.5139   -2.7850   25.4671 C.ar    1  UNL1        0.0003
     18 C           5.2949   -2.6207   18.5858 C.3     1  UNL1        0.1472
     19 O           6.4602   -2.5219   17.6464 O.3     1  UNL1       -0.3787
     20 H           6.4245   -1.6750   17.1749 H       1  UNL1        0.2108
     21 C           4.3048   -1.4973   18.6733 C.ar    1  UNL1        0.0054
     22 C           4.5050   -0.2557   17.8558 C.ar    1  UNL1       -0.0007
     23 C           3.5149    0.8676   17.9433 C.ar    1  UNL1        0.0142
     24 C           2.3245    0.7493   18.8483 C.ar    1  UNL1        0.0491
     25 C           2.1243   -0.4922   19.6658 C.ar    1  UNL1        0.0108
     26 C           3.1144   -1.6156   19.5783 C.ar    1  UNL1       -0.0033
     27 C           0.9339   -0.6105   20.5708 C.3     1  UNL1        0.1189
     28 N          -0.0562    0.5128   20.6583 N.am    1  UNL1       -0.2846
     29 C           0.1440    1.7545   19.8408 C.2     1  UNL1        0.3047
     30 O          -0.8462    2.8778   19.9284 O.2     1  UNL1       -0.2525
     31 N           1.3343    1.8728   18.9358 N.am    1  UNL1       -0.2685
     32 H          -0.8375    0.4352   21.2523 H       1  UNL1        0.1513
     33 H           1.4658    2.6877   18.3993 H       1  UNL1        0.1564
@<TRIPOS>BOND
     1     1     2    1
     2     2    18    1
     3    18    19    1
     4    18    21    1
     5    21    22   ar
     6    22    23   ar
     7    23    24   ar
     8    24    25   ar
     9    25    26   ar
    10    25    27    1
    11    27    28    1
    12    28    29   am
    13    29    30    2
    14    29    31   am
    15     2     3    1
    16     3     4    1
    17     4     5    1
    18     5     6    1
    19     6     7    1
    20     6    11    1
    21    11    12   ar
    22    12    13   ar
    23    13    14   ar
    24    14    15    1
    25    14    16   ar
    26    16    17   ar
    27     6     8    1
    28     8     9    1
    29    26    21   ar
    30     9     3    1
    31    31    24    1
    32    17    11   ar
    33    19    20    1
    34    28    32    1
    35    31    33    1
    36     7    10    1
@<TRIPOS>MOLECULE
*****
 33 36 0 0 0
SMALL
GASTEIGER

@<TRIPOS>ATOM
      1 C           9.2377   -2.9867   22.0361 C.3     1  UNL1        0.0203
      2 C           8.1755   -4.0123   21.7712 C.3     1  UNL1        0.0888
      3 N           6.9412   -3.6337   21.0076 N.3     1  UNL1       -0.2713
      4 C           6.2743   -4.6375   20.1145 C.3     1  UNL1        0.0749
      5 C           5.0400   -4.2588   19.3509 C.3     1  UNL1        0.0485
      6 C           4.4726   -2.8764   19.4804 C.3     1  UNL1        0.1096
      7 O           3.4901   -3.4719   18.5159 O.3     1  UNL1       -0.3826
      8 C           5.1395   -1.8725   20.3735 C.3     1  UNL1        0.0485
      9 C           6.3738   -2.2511   21.1371 C.3     1  UNL1        0.0749
     10 H           3.7353   -4.3922   18.3315 H       1  UNL1        0.2107
     11 C           3.5639   -1.7007   19.2749 C.ar    1  UNL1        0.0019
     12 C           2.3885   -1.4934   20.1834 C.ar    1  UNL1        0.0003
     13 C           1.4799   -0.3178   19.9779 C.ar    1  UNL1        0.0294
     14 C           1.7467    0.6506   18.8638 C.ar    1  UNL1        0.1401
     15 F           0.8380    1.8262   18.6584 F       1  UNL1       -0.2042
     16 C           2.9220    0.4433   17.9553 C.ar    1  UNL1        0.0294
     17 C           3.8307   -0.7324   18.1608 C.ar    1  UNL1        0.0003
     18 C           8.3477   -5.4164   22.2699 C.3     1  UNL1        0.1472
     19 O           8.7737   -6.5009   21.3252 O.3     1  UNL1       -0.3787
     20 H           8.8368   -7.3415   21.8052 H       1  UNL1        0.2108
     21 C           8.0939   -5.7361   23.7133 C.ar    1  UNL1        0.0054
     22 C           8.3120   -7.1301   24.2223 C.ar    1  UNL1       -0.0007
     23 C           8.0582   -7.4498   25.6657 C.ar    1  UNL1        0.0142
     24 C           7.5864   -6.3754   26.6001 C.ar    1  UNL1        0.0491
     25 C           7.3684   -4.9813   26.0911 C.ar    1  UNL1        0.0108
     26 C           7.6222   -4.6617   24.6477 C.ar    1  UNL1       -0.0033
     27 C           6.8966   -3.9069   27.0255 C.3     1  UNL1        0.1189
     28 N           6.6428   -4.2266   28.4689 N.am    1  UNL1       -0.2846
     29 C           6.8608   -5.6207   28.9779 C.2     1  UNL1        0.3047
     30 O           6.6071   -5.9403   30.4213 O.2     1  UNL1       -0.2525
     31 N           7.3326   -6.6951   28.0435 N.am    1  UNL1       -0.2685
     32 H           6.3332   -3.5214   29.0821 H       1  UNL1        0.1513
     33 H           7.4757   -7.6100   28.3776 H       1  UNL1        0.1564
@<TRIPOS>BOND
     1     1     2    1
     2     2    18    1
     3    18    19    1
     4    18    21    1
     5    21    22   ar
     6    22    23   ar
     7    23    24   ar
     8    24    25   ar
     9    25    26   ar
    10    25    27    1
    11    27    28    1
    12    28    29   am
    13    29    30    2
    14    29    31   am
    15     2     3    1
    16     3     4    1
    17     4     5    1
    18     5     6    1
    19     6     7    1
    20     6    11    1
    21    11    12   ar
    22    12    13   ar
    23    13    14   ar
    24    14    15    1
    25    14    16   ar
    26    16    17   ar
    27     6     8    1
    28     8     9    1
    29    26    21   ar
    30     9     3    1
    31    31    24    1
    32    17    11   ar
    33    19    20    1
    34    28    32    1
    35    31    33    1
    36     7    10    1
@<TRIPOS>MOLECULE
*****
 33 36 0 0 0
SMALL
GASTEIGER

@<TRIPOS>ATOM
      1 C           1.3152    4.6347   23.5511 C.3     1  UNL1        0.0203
      2 C           0.5046    3.3993   23.2924 C.3     1  UNL1        0.0888
      3 N           0.7954    2.5494   22.0911 N.3     1  UNL1       -0.2713
      4 C          -0.0840    2.6376   20.8793 C.3     1  UNL1        0.0749
      5 C           0.2068    1.7877   19.6780 C.3     1  UNL1        0.0485
      6 C           1.3771    0.8495   19.6886 C.3     1  UNL1        0.1096
      7 O           0.8392    0.5794   18.3147 O.3     1  UNL1       -0.3826
      8 C           2.2567    0.7612   20.9005 C.3     1  UNL1        0.0485
      9 C           1.9658    1.6111   22.1018 C.3     1  UNL1        0.0749
     10 H           0.0565    1.1310   18.1596 H       1  UNL1        0.2107
     11 C           2.3607   -0.1825   19.2221 C.ar    1  UNL1        0.0019
     12 C           2.6012   -1.4145   20.0431 C.ar    1  UNL1        0.0003
     13 C           3.5847   -2.4466   19.5767 C.ar    1  UNL1        0.0294
     14 C           4.3277   -2.2465   18.2889 C.ar    1  UNL1        0.1401
     15 F           5.3112   -3.2786   17.8225 F       1  UNL1       -0.2042
     16 C           4.0871   -1.0145   17.4679 C.ar    1  UNL1        0.0294
     17 C           3.1036    0.0175   17.9344 C.ar    1  UNL1        0.0003
     18 C          -0.5967    3.0139   24.2350 C.3     1  UNL1        0.1472
     19 O          -2.0247    3.3031   23.8783 O.3     1  UNL1       -0.3787
     20 H          -2.6052    2.9923   24.5906 H       1  UNL1        0.2108
     21 C          -0.2701    2.3391   25.5343 C.ar    1  UNL1        0.0054
     22 C          -1.2600    2.3622   26.6610 C.ar    1  UNL1       -0.0007
     23 C          -0.9333    1.6875   27.9602 C.ar    1  UNL1        0.0142
     24 C           0.3833    0.9897   28.1327 C.ar    1  UNL1        0.0491
     25 C           1.3732    0.9666   27.0060 C.ar    1  UNL1        0.0108
     26 C           1.0465    1.6413   25.7068 C.ar    1  UNL1       -0.0033
     27 C           2.6897    0.2688   27.1785 C.3     1  UNL1        0.1189
     28 N           3.0164   -0.4059   28.4777 N.am    1  UNL1       -0.2846
     29 C           2.0265   -0.3828   29.6045 C.2     1  UNL1        0.3047
     30 O           2.3531   -1.0575   30.9038 O.2     1  UNL1       -0.2525
     31 N           0.7099    0.3150   29.4320 N.am    1  UNL1       -0.2685
     32 H           3.8805   -0.8639   28.5909 H       1  UNL1        0.1513
     33 H           0.0602    0.3301   30.1716 H       1  UNL1        0.1564
@<TRIPOS>BOND
     1     1     2    1
     2     2    18    1
     3    18    19    1
     4    18    21    1
     5    21    22   ar
     6    22    23   ar
     7    23    24   ar
     8    24    25   ar
     9    25    26   ar
    10    25    27    1
    11    27    28    1
    12    28    29   am
    13    29    30    2
    14    29    31   am
    15     2     3    1
    16     3     4    1
    17     4     5    1
    18     5     6    1
    19     6     7    1
    20     6    11    1
    21    11    12   ar
    22    12    13   ar
    23    13    14   ar
    24    14    15    1
    25    14    16   ar
    26    16    17   ar
    27     6     8    1
    28     8     9    1
    29    26    21   ar
    30     9     3    1
    31    31    24    1
    32    17    11   ar
    33    19    20    1
    34    28    32    1
    35    31    33    1
    36     7    10    1
@<TRIPOS>MOLECULE
*****
 33 36 0 0 0
SMALL
GASTEIGER

@<TRIPOS>ATOM
      1 C           1.5812    3.0964   21.0243 C.3     1  UNL1        0.0203
      2 C           0.7157    2.0486   21.6592 C.3     1  UNL1        0.0888
      3 N          -0.0942    2.3818   22.8770 N.3     1  UNL1       -0.2713
      4 C           0.3371    1.8830   24.2242 C.3     1  UNL1        0.0749
      5 C          -0.4728    2.2163   25.4420 C.3     1  UNL1        0.0485
      6 C          -1.7141    3.0484   25.3125 C.3     1  UNL1        0.1096
      7 O          -1.7138    2.8097   26.7934 O.3     1  UNL1       -0.3826
      8 C          -2.1455    3.5472   23.9652 C.3     1  UNL1        0.0485
      9 C          -1.3356    3.2140   22.7474 C.3     1  UNL1        0.0749
     10 H          -0.9453    2.2688   27.0336 H       1  UNL1        0.2107
     11 C          -2.9553    3.7976   25.6973 C.ar    1  UNL1        0.0019
     12 C          -2.9242    4.7602   26.8472 C.ar    1  UNL1        0.0003
     13 C          -4.1653    5.5094   27.2321 C.ar    1  UNL1        0.0294
     14 C          -5.4378    5.2960   26.4669 C.ar    1  UNL1        0.1401
     15 F          -6.6789    6.0452   26.8518 F       1  UNL1       -0.2042
     16 C          -5.4690    4.3334   25.3170 C.ar    1  UNL1        0.0294
     17 C          -4.2277    3.5842   24.9321 C.ar    1  UNL1        0.0003
     18 C           0.6603    0.6676   21.0764 C.3     1  UNL1        0.1472
     19 O          -0.5795    0.1993   20.3739 O.3     1  UNL1       -0.3787
     20 H          -0.4494   -0.7091   20.0594 H       1  UNL1        0.2108
     21 C           1.8446   -0.2452   21.1961 C.ar    1  UNL1        0.0054
     22 C           2.6203   -0.3030   22.4786 C.ar    1  UNL1       -0.0007
     23 C           3.8046   -1.2157   22.5983 C.ar    1  UNL1        0.0142
     24 C           4.2132   -2.0706   21.4354 C.ar    1  UNL1        0.0491
     25 C           3.4375   -2.0128   20.1529 C.ar    1  UNL1        0.0108
     26 C           2.2532   -1.1000   20.0333 C.ar    1  UNL1       -0.0033
     27 C           3.8461   -2.8676   18.9901 C.3     1  UNL1        0.1189
     28 N           5.0304   -3.7804   19.1097 N.am    1  UNL1       -0.2846
     29 C           5.8061   -3.8382   20.3923 C.2     1  UNL1        0.3047
     30 O           6.9904   -4.7509   20.5119 O.2     1  UNL1       -0.2525
     31 N           5.3976   -2.9833   21.5551 N.am    1  UNL1       -0.2685
     32 H           5.2985   -4.3414   18.3465 H       1  UNL1        0.1513
     33 H           5.9067   -3.0213   22.3969 H       1  UNL1        0.1564
@<TRIPOS>BOND
     1     1     2    1
     2     2    18    1
     3    18    19    1
     4    18    21    1
     5    21    22   ar
     6    22    23   ar
     7    23    24   ar
     8    24    25   ar
     9    25    26   ar
    10    25    27    1
    11    27    28    1
    12    28    29   am
    13    29    30    2
    14    29    31   am
    15     2     3    1
    16     3     4    1
    17     4     5    1
    18     5     6    1
    19     6     7    1
    20     6    11    1
    21    11    12   ar
    22    12    13   ar
    23    13    14   ar
    24    14    15    1
    25    14    16   ar
    26    16    17   ar
    27     6     8    1
    28     8     9    1
    29    26    21   ar
    30     9     3    1
    31    31    24    1
    32    17    11   ar
    33    19    20    1
    34    28    32    1
    35    31    33    1
    36     7    10    1
