@<TRIPOS>MOLECULE
*****
 29 33 0 0 0
SMALL
GASTEIGER

@<TRIPOS>ATOM
      1 C           8.1369   -5.3465   27.5809 C.ar    1  UNL1        0.1917
      2 N           9.2713   -6.3198   27.4550 N.ar    1  UNL1       -0.1268
      3 N           9.5358   -6.5367   25.9945 N.ar    1  UNL1       -0.1316
      4 C           8.5649   -5.6976   25.2179 C.ar    1  UNL1        0.1615
      5 N           7.7003   -4.9620   26.1984 N.ar    1  UNL1       -0.2940
      6 C           6.6272   -4.0370   25.7056 C.3     1  UNL1        0.1302
      7 C           6.4186   -3.8477   24.2322 C.3     1  UNL1        0.1186
      8 N           7.2832   -4.5832   23.2517 N.am    1  UNL1       -0.2688
      9 C           7.0747   -4.3939   21.7784 C.2     1  UNL1        0.2493
     10 O           7.9393   -5.1295   20.7979 O.2     1  UNL1       -0.2699
     11 C           8.3563   -5.5082   23.7446 C.3     1  UNL1        0.1343
     12 C           9.2209   -6.2438   22.7641 C.3     1  UNL1        0.0298
     13 C           5.9117   -2.2064   31.1960 C.3     1  UNL1        0.0744
     14 C           6.5205   -3.4023   30.5258 C.ar    1  UNL1        0.1481
     15 N           6.7391   -4.7477   31.1521 N.ar    1  UNL1       -0.1929
     16 S           7.3712   -5.6398   30.1251 S.2     1  UNL1        0.0369
     17 C           7.5433   -4.8457   28.8642 C.ar    1  UNL1        0.1652
     18 N           7.0175   -3.4629   29.1119 N.ar    1  UNL1       -0.2190
     19 C           6.0016   -3.4690   21.2857 C.ar    1  UNL1        0.0536
     20 C           4.7281   -4.0290   20.7247 C.ar    1  UNL1        0.0045
     21 C           3.6549   -3.1040   20.2319 C.ar    1  UNL1        0.0006
     22 C           3.8553   -1.6190   20.3001 C.ar    1  UNL1        0.0060
     23 C           5.1288   -1.0590   20.8610 C.ar    1  UNL1        0.0006
     24 C           6.2019   -1.9839   21.3538 C.ar    1  UNL1        0.0045
     25 C           2.7822   -0.6940   19.8073 C.ar    1  UNL1        0.0295
     26 C           1.4080   -0.5476   20.3906 C.ar    1  UNL1        0.0070
     27 C           0.6714    0.4839   19.5885 C.ar    1  UNL1        0.0075
     28 C           1.5903    0.9750   18.5094 C.ar    1  UNL1        0.0354
     29 S           2.8949    0.2470   18.6446 S.2     1  UNL1       -0.0864
@<TRIPOS>BOND
     1    13    14    1
     2    14    15   ar
     3    15    16   ar
     4    16    17   ar
     5    17     1    1
     6     1     2   ar
     7     2     3   ar
     8     3     4   ar
     9     4     5   ar
    10     5     6    1
    11     6     7    1
    12     7     8    1
    13     8     9   am
    14     9    10    2
    15     9    19    1
    16    19    20   ar
    17    20    21   ar
    18    21    22   ar
    19    22    25    1
    20    25    26   ar
    21    26    27   ar
    22    27    28   ar
    23    28    29   ar
    24    22    23   ar
    25    23    24   ar
    26     8    11    1
    27    11    12    1
    28    17    18   ar
    29    18    14   ar
    30     5     1   ar
    31    24    19   ar
    32    11     4    1
    33    29    25   ar
@<TRIPOS>MOLECULE
*****
 29 33 0 0 0
SMALL
GASTEIGER

@<TRIPOS>ATOM
      1 C          -1.2084    2.6603   26.8386 C.ar    1  UNL1        0.1917
      2 N          -2.2934    3.6927   26.7553 N.ar    1  UNL1       -0.1268
      3 N          -2.4719    4.0620   25.3124 N.ar    1  UNL1       -0.1316
      4 C          -1.4971    3.2580   24.5041 C.ar    1  UNL1        0.1615
      5 N          -0.7162    2.3917   25.4473 N.ar    1  UNL1       -0.2940
      6 C           0.3421    1.4702   24.9175 C.3     1  UNL1        0.1302
      7 C           0.6195    1.4150   23.4443 C.3     1  UNL1        0.1186
      8 N          -0.1614    2.2813   22.5011 N.am    1  UNL1       -0.2688
      9 C           0.1160    2.2261   21.0280 C.2     1  UNL1        0.2493
     10 O          -0.6649    3.0924   20.0848 O.2     1  UNL1       -0.2699
     11 C          -1.2197    3.2028   23.0310 C.3     1  UNL1        0.1343
     12 C          -2.0007    4.0692   22.0878 C.3     1  UNL1        0.0298
     13 C           1.3962    1.7992   31.3503 C.3     1  UNL1        0.0744
     14 C           0.4932    1.6149   30.1668 C.ar    1  UNL1        0.1481
     15 N          -0.3487    0.4070   29.8798 N.ar    1  UNL1       -0.1929
     16 S          -1.0886    0.6517   28.5981 S.2     1  UNL1        0.0369
     17 C          -0.7040    2.0106   28.0930 C.ar    1  UNL1        0.1652
     18 N           0.2737    2.6060   29.0624 N.ar    1  UNL1       -0.2190
     19 C           1.1743    1.3046   20.4982 C.ar    1  UNL1        0.0536
     20 C           0.8663   -0.1481   20.2865 C.ar    1  UNL1        0.0045
     21 C           1.9247   -1.0697   19.7566 C.ar    1  UNL1        0.0006
     22 C           3.2909   -0.5385   19.4385 C.ar    1  UNL1        0.0060
     23 C           3.5988    0.9142   19.6502 C.ar    1  UNL1        0.0006
     24 C           2.5406    1.8357   20.1800 C.ar    1  UNL1        0.0045
     25 C           4.3493   -1.4600   18.9086 C.ar    1  UNL1        0.0295
     26 C           4.2614   -2.9558   18.8383 C.ar    1  UNL1        0.0070
     27 C           5.5391   -3.4677   18.2423 C.ar    1  UNL1        0.0075
     28 C           6.4168   -2.2883   17.9441 C.ar    1  UNL1        0.0354
     29 S           5.6814   -1.0474   18.3559 S.2     1  UNL1       -0.0864
@<TRIPOS>BOND
     1    13    14    1
     2    14    15   ar
     3    15    16   ar
     4    16    17   ar
     5    17     1    1
     6     1     2   ar
     7     2     3   ar
     8     3     4   ar
     9     4     5   ar
    10     5     6    1
    11     6     7    1
    12     7     8    1
    13     8     9   am
    14     9    10    2
    15     9    19    1
    16    19    20   ar
    17    20    21   ar
    18    21    22   ar
    19    22    25    1
    20    25    26   ar
    21    26    27   ar
    22    27    28   ar
    23    28    29   ar
    24    22    23   ar
    25    23    24   ar
    26     8    11    1
    27    11    12    1
    28    17    18   ar
    29    18    14   ar
    30     5     1   ar
    31    24    19   ar
    32    11     4    1
    33    29    25   ar
@<TRIPOS>MOLECULE
*****
 29 33 0 0 0
SMALL
GASTEIGER

@<TRIPOS>ATOM
      1 C           1.0629    4.8424   34.6442 C.ar    1  UNL1        0.1917
      2 N           0.9813    5.3906   36.0381 N.ar    1  UNL1       -0.1268
      3 N           1.8244    4.5248   36.9267 N.ar    1  UNL1       -0.1316
      4 C           2.4271    3.4416   36.0820 C.ar    1  UNL1        0.1615
      5 N           1.9565    3.6379   34.6714 N.ar    1  UNL1       -0.2940
      6 C           2.4023    2.6945   33.5938 C.3     1  UNL1        0.1302
      7 C           3.3189    1.5547   33.9269 C.3     1  UNL1        0.1186
      8 N           3.7895    1.3584   35.3376 N.am    1  UNL1       -0.2688
      9 C           4.7060    0.2187   35.6707 C.2     1  UNL1        0.2493
     10 O           5.1767    0.0224   37.0814 O.2     1  UNL1       -0.2699
     11 C           3.3436    2.3019   36.4152 C.3     1  UNL1        0.1343
     12 C           3.8142    2.1056   37.8258 C.3     1  UNL1        0.0298
     13 C           0.0467    6.3319   29.6814 C.3     1  UNL1        0.0744
     14 C          -0.0948    6.0854   31.1542 C.ar    1  UNL1        0.1481
     15 N          -1.2862    6.4345   31.9961 N.ar    1  UNL1       -0.1929
     16 S          -0.9975    6.0114   33.4060 S.2     1  UNL1        0.0369
     17 C           0.3723    5.4008   33.4354 C.ar    1  UNL1        0.1652
     18 N           0.9302    5.4465   32.0438 N.ar    1  UNL1       -0.2190
     19 C           5.1519   -0.7247   34.5932 C.ar    1  UNL1        0.0536
     20 C           4.2464   -1.8334   34.1451 C.ar    1  UNL1        0.0045
     21 C           4.6923   -2.7768   33.0675 C.ar    1  UNL1        0.0006
     22 C           6.0437   -2.6116   32.4381 C.ar    1  UNL1        0.0060
     23 C           6.9493   -1.5029   32.8862 C.ar    1  UNL1        0.0006
     24 C           6.5034   -0.5595   33.9637 C.ar    1  UNL1        0.0045
     25 C           6.4897   -3.5550   31.3605 C.ar    1  UNL1        0.0295
     26 C           6.8749   -4.9921   31.5508 C.ar    1  UNL1        0.0070
     27 C           7.2520   -5.5522   30.2113 C.ar    1  UNL1        0.0075
     28 C           7.0998   -4.4612   29.1932 C.ar    1  UNL1        0.0354
     29 S           6.6287   -3.2268   29.9035 S.2     1  UNL1       -0.0864
@<TRIPOS>BOND
     1    13    14    1
     2    14    15   ar
     3    15    16   ar
     4    16    17   ar
     5    17     1    1
     6     1     2   ar
     7     2     3   ar
     8     3     4   ar
     9     4     5   ar
    10     5     6    1
    11     6     7    1
    12     7     8    1
    13     8     9   am
    14     9    10    2
    15     9    19    1
    16    19    20   ar
    17    20    21   ar
    18    21    22   ar
    19    22    25    1
    20    25    26   ar
    21    26    27   ar
    22    27    28   ar
    23    28    29   ar
    24    22    23   ar
    25    23    24   ar
    26     8    11    1
    27    11    12    1
    28    17    18   ar
    29    18    14   ar
    30     5     1   ar
    31    24    19   ar
    32    11     4    1
    33    29    25   ar
@<TRIPOS>MOLECULE
*****
 29 33 0 0 0
SMALL
GASTEIGER

@<TRIPOS>ATOM
      1 C           6.8139   -4.3027   23.3035 C.ar    1  UNL1        0.1917
      2 N           7.6622   -5.0912   22.3502 N.ar    1  UNL1       -0.1268
      3 N           7.2693   -4.7080   20.9543 N.ar    1  UNL1       -0.1316
      4 C           6.1782   -3.6826   21.0448 C.ar    1  UNL1        0.1615
      5 N           5.8967   -3.4322   22.4967 N.ar    1  UNL1       -0.2940
      6 C           4.8417   -2.4438   22.8965 C.3     1  UNL1        0.1302
      7 C           4.0680   -1.7058   21.8444 C.3     1  UNL1        0.1186
      8 N           4.3495   -1.9562   20.3925 N.am    1  UNL1       -0.2688
      9 C           3.5759   -1.2183   19.3404 C.2     1  UNL1        0.2493
     10 O           3.8573   -1.4687   17.8885 O.2     1  UNL1       -0.2699
     11 C           5.4046   -2.9447   19.9927 C.3     1  UNL1        0.1343
     12 C           5.6860   -3.1951   18.5408 C.3     1  UNL1        0.0298
     13 C           6.5105   -2.9858   28.4078 C.3     1  UNL1        0.0744
     14 C           6.7330   -3.7672   27.1469 C.ar    1  UNL1        0.1481
     15 N           7.1922   -5.1927   27.0626 N.ar    1  UNL1       -0.1929
     16 S           7.2784   -5.5668   25.6125 S.2     1  UNL1        0.0369
     17 C           6.8725   -4.3726   24.8007 C.ar    1  UNL1        0.1652
     18 N           6.5355   -3.2603   25.7490 N.ar    1  UNL1       -0.2190
     19 C           2.5208   -0.2299   19.7403 C.ar    1  UNL1        0.0536
     20 C           1.1648   -0.7108   20.1647 C.ar    1  UNL1        0.0045
     21 C           0.1098    0.2777   20.5645 C.ar    1  UNL1        0.0006
     22 C           0.4107    1.7470   20.5400 C.ar    1  UNL1        0.0060
     23 C           1.7667    2.2279   20.1156 C.ar    1  UNL1        0.0006
     24 C           2.8217    1.2395   19.7158 C.ar    1  UNL1        0.0045
     25 C          -0.6444    2.7355   20.9398 C.ar    1  UNL1        0.0295
     26 C          -1.6544    3.3648   20.0267 C.ar    1  UNL1        0.0070
     27 C          -2.5089    4.2864   20.8456 C.ar    1  UNL1        0.0075
     28 C          -2.0269    4.2266   22.2648 C.ar    1  UNL1        0.0354
     29 S          -0.8746    3.2681   22.3231 S.2     1  UNL1       -0.0864
@<TRIPOS>BOND
     1    13    14    1
     2    14    15   ar
     3    15    16   ar
     4    16    17   ar
     5    17     1    1
     6     1     2   ar
     7     2     3   ar
     8     3     4   ar
     9     4     5   ar
    10     5     6    1
    11     6     7    1
    12     7     8    1
    13     8     9   am
    14     9    10    2
    15     9    19    1
    16    19    20   ar
    17    20    21   ar
    18    21    22   ar
    19    22    25    1
    20    25    26   ar
    21    26    27   ar
    22    27    28   ar
    23    28    29   ar
    24    22    23   ar
    25    23    24   ar
    26     8    11    1
    27    11    12    1
    28    17    18   ar
    29    18    14   ar
    30     5     1   ar
    31    24    19   ar
    32    11     4    1
    33    29    25   ar
@<TRIPOS>MOLECULE
*****
 29 33 0 0 0
SMALL
GASTEIGER

@<TRIPOS>ATOM
      1 C           3.2118   -1.0981   20.4710 C.ar    1  UNL1        0.1917
      2 N           3.7507   -1.3894   19.1019 N.ar    1  UNL1       -0.1268
      3 N           4.9451   -2.2840   19.2547 N.ar    1  UNL1       -0.1316
      4 C           5.1442   -2.5455   20.7182 C.ar    1  UNL1        0.1615
      5 N           4.0730   -1.8126   21.4700 N.ar    1  UNL1       -0.2940
      6 C           4.0201   -1.8904   22.9670 C.3     1  UNL1        0.1302
      7 C           5.0385   -2.7013   23.7123 C.3     1  UNL1        0.1186
      8 N           6.1098   -3.4342   22.9605 N.am    1  UNL1       -0.2688
      9 C           7.1282   -4.2450   23.7058 C.2     1  UNL1        0.2493
     10 O           8.1995   -4.9779   22.9540 O.2     1  UNL1       -0.2699
     11 C           6.1626   -3.3563   21.4634 C.3     1  UNL1        0.1343
     12 C           7.2339   -4.0892   20.7116 C.3     1  UNL1        0.0298
     13 C           0.0171    2.4001   22.8030 C.3     1  UNL1        0.0744
     14 C           0.5523    1.3654   21.8579 C.ar    1  UNL1        0.1481
     15 N          -0.1769    0.7829   20.6836 N.ar    1  UNL1       -0.1929
     16 S           0.7307   -0.2109   20.0211 S.2     1  UNL1        0.0369
     17 C           2.0206   -0.2425   20.7860 C.ar    1  UNL1        0.1652
     18 N           1.9104    0.7317   21.9212 N.ar    1  UNL1       -0.2190
     19 C           7.0753   -4.3229   25.2028 C.ar    1  UNL1        0.0536
     20 C           7.2645   -3.0830   26.0254 C.ar    1  UNL1        0.0045
     21 C           7.2116   -3.1609   27.5225 C.ar    1  UNL1        0.0006
     22 C           6.9695   -4.4787   28.1969 C.ar    1  UNL1        0.0060
     23 C           6.7804   -5.7186   27.3742 C.ar    1  UNL1        0.0006
     24 C           6.8333   -5.6407   25.8772 C.ar    1  UNL1        0.0045
     25 C           6.9167   -4.5566   29.6940 C.ar    1  UNL1        0.0295
     26 C           7.0599   -5.8020   30.5176 C.ar    1  UNL1        0.0070
     27 C           6.9430   -5.4179   31.9629 C.ar    1  UNL1        0.0075
     28 C           6.7275   -3.9351   32.0325 C.ar    1  UNL1        0.0354
     29 S           6.7112   -3.4027   30.6301 S.2     1  UNL1       -0.0864
@<TRIPOS>BOND
     1    13    14    1
     2    14    15   ar
     3    15    16   ar
     4    16    17   ar
     5    17     1    1
     6     1     2   ar
     7     2     3   ar
     8     3     4   ar
     9     4     5   ar
    10     5     6    1
    11     6     7    1
    12     7     8    1
    13     8     9   am
    14     9    10    2
    15     9    19    1
    16    19    20   ar
    17    20    21   ar
    18    21    22   ar
    19    22    25    1
    20    25    26   ar
    21    26    27   ar
    22    27    28   ar
    23    28    29   ar
    24    22    23   ar
    25    23    24   ar
    26     8    11    1
    27    11    12    1
    28    17    18   ar
    29    18    14   ar
    30     5     1   ar
    31    24    19   ar
    32    11     4    1
    33    29    25   ar
@<TRIPOS>MOLECULE
*****
 29 33 0 0 0
SMALL
GASTEIGER

@<TRIPOS>ATOM
      1 C           6.0890   -2.9925   25.4393 C.ar    1  UNL1        0.1917
      2 N           6.6594   -4.2959   24.9641 N.ar    1  UNL1       -0.1268
      3 N           7.0546   -5.0959   26.1698 N.ar    1  UNL1       -0.1316
      4 C           6.7286   -4.2870   27.3902 C.ar    1  UNL1        0.1615
      5 N           6.1318   -2.9870   26.9387 N.ar    1  UNL1       -0.2940
      6 C           5.7045   -1.9661   27.9512 C.3     1  UNL1        0.1302
      7 C           5.8739   -2.2453   29.4153 C.3     1  UNL1        0.1186
      8 N           6.4707   -3.5453   29.8668 N.am    1  UNL1       -0.2688
      9 C           6.6401   -3.8244   31.3308 C.2     1  UNL1        0.2493
     10 O           7.2369   -5.1244   31.7822 O.2     1  UNL1       -0.2699
     11 C           6.8980   -4.5661   28.8542 C.3     1  UNL1        0.1343
     12 C           7.4948   -5.8661   29.3057 C.3     1  UNL1        0.0298
     13 C           3.1013   -0.2483   22.0595 C.3     1  UNL1        0.0744
     14 C           4.1941   -0.6271   23.0146 C.ar    1  UNL1        0.1481
     15 N           5.3355    0.2482   23.4403 N.ar    1  UNL1       -0.1929
     16 S           6.1843   -0.5314   24.4005 S.2     1  UNL1        0.0369
     17 C           5.5675   -1.8884   24.5681 C.ar    1  UNL1        0.1652
     18 N           4.3375   -1.9476   23.7116 N.ar    1  UNL1       -0.2190
     19 C           6.2128   -2.8036   32.3433 C.ar    1  UNL1        0.0536
     20 C           7.1685   -1.7321   32.7774 C.ar    1  UNL1        0.0045
     21 C           6.7411   -0.7112   33.7900 C.ar    1  UNL1        0.0006
     22 C           5.3580   -0.7619   34.3684 C.ar    1  UNL1        0.0060
     23 C           4.4023   -1.8334   33.9342 C.ar    1  UNL1        0.0006
     24 C           4.8297   -2.8543   32.9217 C.ar    1  UNL1        0.0045
     25 C           4.9306    0.2590   35.3809 C.ar    1  UNL1        0.0295
     26 C           5.2036    0.2068   36.8549 C.ar    1  UNL1        0.0070
     27 C           4.5969    1.4268   37.4822 C.ar    1  UNL1        0.0075
     28 C           3.9489    2.2330   36.3958 C.ar    1  UNL1        0.0354
     29 S           4.1552    1.5112   35.0971 S.2     1  UNL1       -0.0864
@<TRIPOS>BOND
     1    13    14    1
     2    14    15   ar
     3    15    16   ar
     4    16    17   ar
     5    17     1    1
     6     1     2   ar
     7     2     3   ar
     8     3     4   ar
     9     4     5   ar
    10     5     6    1
    11     6     7    1
    12     7     8    1
    13     8     9   am
    14     9    10    2
    15     9    19    1
    16    19    20   ar
    17    20    21   ar
    18    21    22   ar
    19    22    25    1
    20    25    26   ar
    21    26    27   ar
    22    27    28   ar
    23    28    29   ar
    24    22    23   ar
    25    23    24   ar
    26     8    11    1
    27    11    12    1
    28    17    18   ar
    29    18    14   ar
    30     5     1   ar
    31    24    19   ar
    32    11     4    1
    33    29    25   ar
@<TRIPOS>MOLECULE
*****
 29 33 0 0 0
SMALL
GASTEIGER

@<TRIPOS>ATOM
      1 C           2.2026   -0.1177   19.3297 C.ar    1  UNL1        0.1917
      2 N           1.4100    0.5370   18.2374 N.ar    1  UNL1       -0.1268
      3 N           0.4627    1.5114   18.8724 N.ar    1  UNL1       -0.1316
      4 C           0.6698    1.4589   20.3571 C.ar    1  UNL1        0.1615
      5 N           1.7452    0.4521   20.6398 N.ar    1  UNL1       -0.2940
      6 C           2.1689    0.1841   22.0535 C.3     1  UNL1        0.1302
      7 C           1.5173    0.9231   23.1846 C.3     1  UNL1        0.1186
      8 N           0.4419    1.9300   22.9020 N.am    1  UNL1       -0.2688
      9 C          -0.2097    2.6689   24.0330 C.2     1  UNL1        0.2493
     10 O          -1.2850    3.6758   23.7503 O.2     1  UNL1       -0.2699
     11 C           0.0182    2.1979   21.4882 C.3     1  UNL1        0.1343
     12 C          -1.0571    3.2047   21.2055 C.3     1  UNL1        0.0298
     13 C           4.6611   -4.7777   18.9820 C.3     1  UNL1        0.0744
     14 C           4.3960   -3.3013   18.9847 C.ar    1  UNL1        0.1481
     15 N           5.4086   -2.2233   18.7345 N.ar    1  UNL1       -0.1929
     16 S           4.7101   -0.8994   18.8333 S.2     1  UNL1        0.0369
     17 C           3.2659   -1.1593   19.1446 C.ar    1  UNL1        0.1652
     18 N           3.0718   -2.6438   19.2382 N.ar    1  UNL1       -0.2190
     19 C           0.2140    2.4010   25.4467 C.ar    1  UNL1        0.0536
     20 C          -0.5323    1.3985   26.2762 C.ar    1  UNL1        0.0045
     21 C          -0.1085    1.1306   27.6900 C.ar    1  UNL1        0.0006
     22 C           1.0615    1.8651   28.2742 C.ar    1  UNL1        0.0060
     23 C           1.8078    2.8676   27.4448 C.ar    1  UNL1        0.0006
     24 C           1.3841    3.1356   26.0310 C.ar    1  UNL1        0.0045
     25 C           1.4853    1.5972   29.6880 C.ar    1  UNL1        0.0295
     26 C           0.9635    2.2909   30.9113 C.ar    1  UNL1        0.0070
     27 C           1.6610    1.7110   32.1060 C.ar    1  UNL1        0.0075
     28 C           2.6139    0.6589   31.6210 C.ar    1  UNL1        0.0354
     29 S           2.5053    0.5886   30.1265 S.2     1  UNL1       -0.0864
@<TRIPOS>BOND
     1    13    14    1
     2    14    15   ar
     3    15    16   ar
     4    16    17   ar
     5    17     1    1
     6     1     2   ar
     7     2     3   ar
     8     3     4   ar
     9     4     5   ar
    10     5     6    1
    11     6     7    1
    12     7     8    1
    13     8     9   am
    14     9    10    2
    15     9    19    1
    16    19    20   ar
    17    20    21   ar
    18    21    22   ar
    19    22    25    1
    20    25    26   ar
    21    26    27   ar
    22    27    28   ar
    23    28    29   ar
    24    22    23   ar
    25    23    24   ar
    26     8    11    1
    27    11    12    1
    28    17    18   ar
    29    18    14   ar
    30     5     1   ar
    31    24    19   ar
    32    11     4    1
    33    29    25   ar
@<TRIPOS>MOLECULE
*****
 29 33 0 0 0
SMALL
GASTEIGER

@<TRIPOS>ATOM
      1 C           6.7655   -3.9714   29.6965 C.ar    1  UNL1        0.1917
      2 N           7.4944   -5.2175   30.1037 N.ar    1  UNL1       -0.1268
      3 N           7.8794   -5.9576   28.8571 N.ar    1  UNL1       -0.1316
      4 C           7.3885   -5.1688   27.6794 C.ar    1  UNL1        0.1615
      5 N           6.7000   -3.9413   28.1983 N.ar    1  UNL1       -0.2940
      6 C           6.1024   -2.9547   27.2394 C.3     1  UNL1        0.1302
      7 C           6.1933   -3.1956   25.7616 C.3     1  UNL1        0.1186
      8 N           6.8817   -4.4232   25.2428 N.am    1  UNL1       -0.2688
      9 C           6.9726   -4.6641   23.7651 C.2     1  UNL1        0.2493
     10 O           7.6611   -5.8917   23.2463 O.2     1  UNL1       -0.2699
     11 C           7.4793   -5.4098   26.2018 C.3     1  UNL1        0.1343
     12 C           8.1678   -6.6373   25.6829 C.3     1  UNL1        0.0298
     13 C           4.7556   -1.6309   33.9817 C.3     1  UNL1        0.0744
     14 C           5.2773   -1.8612   32.5944 C.ar    1  UNL1        0.1481
     15 N           5.3881   -0.8291   31.5115 N.ar    1  UNL1       -0.1929
     16 S           5.9591   -1.4940   30.2941 S.2     1  UNL1        0.0369
     17 C           6.2012   -2.9370   30.6247 C.ar    1  UNL1        0.1652
     18 N           5.7798   -3.1639   32.0463 N.ar    1  UNL1       -0.2190
     19 C           6.3750   -3.6775   22.8062 C.ar    1  UNL1        0.0536
     20 C           7.2257   -2.5878   22.2241 C.ar    1  UNL1        0.0045
     21 C           6.6280   -1.6012   21.2651 C.ar    1  UNL1        0.0006
     22 C           5.1798   -1.7043   20.8884 C.ar    1  UNL1        0.0060
     23 C           4.3292   -2.7940   21.4705 C.ar    1  UNL1        0.0006
     24 C           4.9267   -3.7806   22.4294 C.ar    1  UNL1        0.0045
     25 C           4.5822   -0.7177   19.9295 C.ar    1  UNL1        0.0295
     26 C           4.9379    0.7357   19.8238 C.ar    1  UNL1        0.0070
     27 C           4.0995    1.3403   18.7369 C.ar    1  UNL1        0.0075
     28 C           3.2254    0.2606   18.1708 C.ar    1  UNL1        0.0354
     29 S           3.5238   -1.0114   18.9079 S.2     1  UNL1       -0.0864
@<TRIPOS>BOND
     1    13    14    1
     2    14    15   ar
     3    15    16   ar
     4    16    17   ar
     5    17     1    1
     6     1     2   ar
     7     2     3   ar
     8     3     4   ar
     9     4     5   ar
    10     5     6    1
    11     6     7    1
    12     7     8    1
    13     8     9   am
    14     9    10    2
    15     9    19    1
    16    19    20   ar
    17    20    21   ar
    18    21    22   ar
    19    22    25    1
    20    25    26   ar
    21    26    27   ar
    22    27    28   ar
    23    28    29   ar
    24    22    23   ar
    25    23    24   ar
    26     8    11    1
    27    11    12    1
    28    17    18   ar
    29    18    14   ar
    30     5     1   ar
    31    24    19   ar
    32    11     4    1
    33    29    25   ar
@<TRIPOS>MOLECULE
*****
 29 33 0 0 0
SMALL
GASTEIGER

@<TRIPOS>ATOM
      1 C           3.8205   -1.8195   20.8584 C.ar    1  UNL1        0.1917
      2 N           3.2607   -1.6369   19.4788 N.ar    1  UNL1       -0.1268
      3 N           2.1521   -0.6295   19.5580 N.ar    1  UNL1       -0.1316
      4 C           2.0267   -0.1895   20.9866 C.ar    1  UNL1        0.1615
      5 N           3.0579   -0.9250   21.7903 N.ar    1  UNL1       -0.2940
      6 C           3.1692   -0.6851   23.2667 C.3     1  UNL1        0.1302
      7 C           2.2493    0.2902   23.9396 C.3     1  UNL1        0.1186
      8 N           1.2182    1.0256   23.1359 N.am    1  UNL1       -0.2688
      9 C           0.2983    2.0009   23.8087 C.2     1  UNL1        0.2493
     10 O          -0.7328    2.7363   23.0050 O.2     1  UNL1       -0.2699
     11 C           1.1069    0.7857   21.6593 C.3     1  UNL1        0.1343
     12 C           0.0758    1.5212   20.8556 C.3     1  UNL1        0.0298
     13 C           8.4891   -4.2855   20.9145 C.3     1  UNL1        0.0744
     14 C           7.0913   -3.8692   21.2651 C.ar    1  UNL1        0.1481
     15 N           6.2617   -4.4220   22.3859 N.ar    1  UNL1       -0.1929
     16 S           4.9354   -3.7214   22.3699 S.2     1  UNL1        0.0369
     17 C           4.9454   -2.7357   21.2393 C.ar    1  UNL1        0.1652
     18 N           6.2778   -2.8270   20.5565 N.ar    1  UNL1       -0.2190
     19 C           0.4096    2.2407   25.2852 C.ar    1  UNL1        0.0536
     20 C          -0.4304    1.4450   26.2397 C.ar    1  UNL1        0.0045
     21 C          -0.3191    1.6849   27.7162 C.ar    1  UNL1        0.0006
     22 C           0.6322    2.7205   28.2382 C.ar    1  UNL1        0.0060
     23 C           1.4722    3.5162   27.2837 C.ar    1  UNL1        0.0006
     24 C           1.3610    3.2764   25.8072 C.ar    1  UNL1        0.0045
     25 C           0.7435    2.9604   29.7148 C.ar    1  UNL1        0.0295
     26 C           0.6866    4.2945   30.3980 C.ar    1  UNL1        0.0070
     27 C           0.8392    4.0669   31.8728 C.ar    1  UNL1        0.0075
     28 C           0.9904    2.5920   32.1010 C.ar    1  UNL1        0.0354
     29 S           0.9313    1.9081   30.7672 S.2     1  UNL1       -0.0864
@<TRIPOS>BOND
     1    13    14    1
     2    14    15   ar
     3    15    16   ar
     4    16    17   ar
     5    17     1    1
     6     1     2   ar
     7     2     3   ar
     8     3     4   ar
     9     4     5   ar
    10     5     6    1
    11     6     7    1
    12     7     8    1
    13     8     9   am
    14     9    10    2
    15     9    19    1
    16    19    20   ar
    17    20    21   ar
    18    21    22   ar
    19    22    25    1
    20    25    26   ar
    21    26    27   ar
    22    27    28   ar
    23    28    29   ar
    24    22    23   ar
    25    23    24   ar
    26     8    11    1
    27    11    12    1
    28    17    18   ar
    29    18    14   ar
    30     5     1   ar
    31    24    19   ar
    32    11     4    1
    33    29    25   ar
