@<TRIPOS>MOLECULE
*****
 36 40 0 0 0
SMALL
GASTEIGER

@<TRIPOS>ATOM
      1 C           7.2392   -5.3015   30.0475 C.3     1  UNL1        0.1909
      2 C           6.9537   -5.6381   31.4811 C.3     1  UNL1        0.1783
      3 O           6.5553   -4.3741   32.1836 O.3     1  UNL1       -0.3267
      4 C           6.5947   -3.2562   31.1842 C.3     1  UNL1        0.2296
      5 O           7.0173   -3.8293   29.8639 O.3     1  UNL1       -0.3255
      6 C           6.1613   -2.4125   32.3461 C.ar    1  UNL1        0.0409
      7 C           4.7528   -2.5023   32.8542 C.ar    1  UNL1        0.0022
      8 C           4.3194   -1.6585   34.0162 C.ar    1  UNL1        0.0113
      9 C           5.2945   -0.7251   34.6702 C.ar    1  UNL1        0.0585
     10 CL          4.8612    0.1187   35.8322 Cl      1  UNL1       -0.0822
     11 C           6.7031   -0.6353   34.1622 C.ar    1  UNL1        0.0226
     12 C           7.1364   -1.4790   33.0002 C.ar    1  UNL1        0.0591
     13 CL          8.5449   -1.3892   32.4922 Cl      1  UNL1       -0.0824
     14 C           7.6708   -6.2674   28.9841 C.3     1  UNL1        0.2374
     15 O           8.7184   -5.8673   27.9879 O.3     1  UNL1       -0.4727
     16 C           7.5034   -4.4144   23.9059 C.ar    1  UNL1        0.0481
     17 C           7.5959   -3.4479   25.0492 C.ar    1  UNL1        0.0176
     18 C           8.0009   -3.9321   26.4098 C.ar    1  UNL1        0.0382
     19 C           8.3134   -5.3830   26.6272 C.ar    1  UNL1        0.1388
     20 C           8.2208   -6.3496   25.4840 C.ar    1  UNL1        0.0382
     21 C           7.8158   -5.8653   24.1233 C.ar    1  UNL1        0.0176
     22 C           4.4362   -2.2309   18.1548 C.3     1  UNL1        0.0948
     23 C           5.8834   -2.4772   18.4632 C.2     1  UNL1        0.2262
     24 O           6.9255   -2.2393   17.4109 O.2     1  UNL1       -0.2749
     25 N           6.2884   -2.9615   19.8239 N.am    1  UNL1       -0.2760
     26 C           5.2463   -3.1995   20.8762 C.3     1  UNL1        0.1148
     27 C           5.6513   -3.6838   22.2368 C.3     1  UNL1        0.1123
     28 N           7.0984   -3.9301   22.5452 N.pl3   1  UNL1       -0.3041
     29 C           8.1405   -3.6922   21.4929 C.3     1  UNL1        0.1123
     30 C           7.7355   -3.2079   20.1323 C.3     1  UNL1        0.1148
     31 C           6.5434   -1.9619   30.4276 C.3     1  UNL1        0.1682
     32 N           5.3883   -1.6713   29.5159 N.ar    1  UNL1       -0.3025
     33 C           4.2219   -0.7811   29.8270 C.ar    1  UNL1        0.0982
     34 C           3.3095   -0.7794   28.6364 C.ar    1  UNL1        0.1193
     35 N           3.9121   -1.6686   27.5894 N.ar    1  UNL1       -0.2223
     36 C           5.1969   -2.2198   28.1330 C.ar    1  UNL1        0.1788
@<TRIPOS>BOND
     1    22    23    1
     2    23    24    2
     3    23    25   am
     4    25    26    1
     5    26    27    1
     6    27    28    1
     7    28    16    1
     8    16    17   ar
     9    17    18   ar
    10    18    19   ar
    11    19    15    1
    12    15    14    1
    13    14     1    1
    14     1     2    1
    15     2     3    1
    16     3     4    1
    17     4    31    1
    18    31    32    1
    19    32    33   ar
    20    33    34   ar
    21    34    35   ar
    22    35    36   ar
    23     4     6    1
    24     6     7   ar
    25     7     8   ar
    26     8     9   ar
    27     9    10    1
    28     9    11   ar
    29    11    12   ar
    30    12    13    1
    31     4     5    1
    32    19    20   ar
    33    20    21   ar
    34    28    29    1
    35    29    30    1
    36    30    25    1
    37    21    16   ar
    38     5     1    1
    39    36    32   ar
    40    12     6   ar
@<TRIPOS>MOLECULE
*****
 36 40 0 0 0
SMALL
GASTEIGER

@<TRIPOS>ATOM
      1 C           4.9524   -3.1818   20.0150 C.3     1  UNL1        0.1909
      2 C           3.7740   -3.2288   19.0880 C.3     1  UNL1        0.1783
      3 O           3.0263   -1.9355   19.2226 O.3     1  UNL1       -0.3267
      4 C           3.7425   -1.0891   20.2329 C.3     1  UNL1        0.2296
      5 O           4.9329   -1.8593   20.7226 O.3     1  UNL1       -0.3255
      6 C           2.6544   -0.0986   19.9417 C.ar    1  UNL1        0.0409
      7 C           1.3557   -0.1699   20.6890 C.ar    1  UNL1        0.0022
      8 C           0.2675    0.8206   20.3978 C.ar    1  UNL1        0.0113
      9 C           0.4780    1.8823   19.3593 C.ar    1  UNL1        0.0585
     10 CL         -0.6102    2.8728   19.0681 Cl      1  UNL1       -0.0822
     11 C           1.7767    1.9535   18.6119 C.ar    1  UNL1        0.0226
     12 C           2.8648    0.9631   18.9031 C.ar    1  UNL1        0.0591
     13 CL          4.1634    1.0343   18.1559 Cl      1  UNL1       -0.0824
     14 C           5.9712   -4.2667   20.2016 C.3     1  UNL1        0.2374
     15 O           7.2405   -3.9831   20.9489 O.3     1  UNL1       -0.4727
     16 C           7.5611   -5.0232   25.3153 C.ar    1  UNL1        0.0481
     17 C           8.5247   -5.6159   24.3304 C.ar    1  UNL1        0.0176
     18 C           8.4179   -5.2692   22.8750 C.ar    1  UNL1        0.0382
     19 C           7.3473   -4.3298   22.4044 C.ar    1  UNL1        0.1388
     20 C           6.3837   -3.7371   23.3893 C.ar    1  UNL1        0.0382
     21 C           6.4905   -4.0838   24.8447 C.ar    1  UNL1        0.0176
     22 C           9.2700   -6.9660   31.6836 C.3     1  UNL1        0.0948
     23 C           7.9885   -6.4100   31.1372 C.2     1  UNL1        0.2262
     24 O           6.8139   -6.2008   32.0462 O.2     1  UNL1       -0.2749
     25 N           7.8816   -6.0633   29.6817 N.am    1  UNL1       -0.2760
     26 C           9.0563   -6.2725   28.7727 C.3     1  UNL1        0.1148
     27 C           8.9494   -5.9258   27.3172 C.3     1  UNL1        0.1123
     28 N           7.6679   -5.3699   26.7708 N.pl3   1  UNL1       -0.3041
     29 C           6.4933   -5.1607   27.6798 C.3     1  UNL1        0.1123
     30 C           6.6001   -5.5074   29.1353 C.3     1  UNL1        0.1148
     31 C           4.2313   -0.0356   21.1823 C.3     1  UNL1        0.1682
     32 N           4.3812   -0.3516   22.6409 N.ar    1  UNL1       -0.3025
     33 C           5.5185    0.0717   23.5225 C.ar    1  UNL1        0.0982
     34 C           5.2602   -0.4615   24.9005 C.ar    1  UNL1        0.1193
     35 N           3.9631   -1.2144   24.8706 N.ar    1  UNL1       -0.2223
     36 C           3.4199   -1.1465   23.4741 C.ar    1  UNL1        0.1788
@<TRIPOS>BOND
     1    22    23    1
     2    23    24    2
     3    23    25   am
     4    25    26    1
     5    26    27    1
     6    27    28    1
     7    28    16    1
     8    16    17   ar
     9    17    18   ar
    10    18    19   ar
    11    19    15    1
    12    15    14    1
    13    14     1    1
    14     1     2    1
    15     2     3    1
    16     3     4    1
    17     4    31    1
    18    31    32    1
    19    32    33   ar
    20    33    34   ar
    21    34    35   ar
    22    35    36   ar
    23     4     6    1
    24     6     7   ar
    25     7     8   ar
    26     8     9   ar
    27     9    10    1
    28     9    11   ar
    29    11    12   ar
    30    12    13    1
    31     4     5    1
    32    19    20   ar
    33    20    21   ar
    34    28    29    1
    35    29    30    1
    36    30    25    1
    37    21    16   ar
    38     5     1    1
    39    36    32   ar
    40    12     6   ar
@<TRIPOS>MOLECULE
*****
 36 40 0 0 0
SMALL
GASTEIGER

@<TRIPOS>ATOM
      1 C           6.7948   -4.6860   30.2440 C.3     1  UNL1        0.1909
      2 C           6.9481   -4.9292   31.7162 C.3     1  UNL1        0.1783
      3 O           6.7884   -3.6154   32.4222 O.3     1  UNL1       -0.3267
      4 C           6.5364   -2.5602   31.3864 C.3     1  UNL1        0.2296
      5 O           6.5404   -3.2218   30.0401 O.3     1  UNL1       -0.3255
      6 C           6.4771   -1.6377   32.5676 C.ar    1  UNL1        0.0409
      7 C           7.5589   -0.6203   32.7796 C.ar    1  UNL1        0.0022
      8 C           7.4996    0.3023   33.9609 C.ar    1  UNL1        0.0113
      9 C           6.3587    0.2075   34.9301 C.ar    1  UNL1        0.0585
     10 CL          6.2995    1.1300   36.1113 Cl      1  UNL1       -0.0822
     11 C           5.2770   -0.8100   34.7180 C.ar    1  UNL1        0.0226
     12 C           5.3363   -1.7325   33.5368 C.ar    1  UNL1        0.0591
     13 CL          4.2546   -2.7499   33.3248 Cl      1  UNL1       -0.0824
     14 C           6.8809   -5.7246   29.1652 C.3     1  UNL1        0.2374
     15 O           7.9645   -5.6438   28.1311 O.3     1  UNL1       -0.4727
     16 C           6.9953   -4.2621   23.9596 C.ar    1  UNL1        0.0481
     17 C           6.5792   -3.4346   25.1394 C.ar    1  UNL1        0.0176
     18 C           6.9023   -3.8951   26.5299 C.ar    1  UNL1        0.0382
     19 C           7.6414   -5.1832   26.7406 C.ar    1  UNL1        0.1388
     20 C           8.0574   -6.0108   25.5608 C.ar    1  UNL1        0.0382
     21 C           7.7344   -5.5502   24.1703 C.ar    1  UNL1        0.0176
     22 C           4.2865   -2.0964   18.0247 C.3     1  UNL1        0.0948
     23 C           5.7029   -2.4199   18.3976 C.2     1  UNL1        0.2262
     24 O           6.7963   -2.2828   17.3799 O.2     1  UNL1       -0.2749
     25 N           6.0260   -2.8804   19.7881 N.am    1  UNL1       -0.2760
     26 C           4.9327   -3.0176   20.8057 C.3     1  UNL1        0.1148
     27 C           5.2557   -3.4781   22.1962 C.3     1  UNL1        0.1123
     28 N           6.6722   -3.8016   22.5691 N.pl3   1  UNL1       -0.3041
     29 C           7.7655   -3.6644   21.5514 C.3     1  UNL1        0.1123
     30 C           7.4425   -3.2039   20.1609 C.3     1  UNL1        0.1148
     31 C           6.2720   -1.3121   30.5973 C.3     1  UNL1        0.1682
     32 N           4.9761   -1.1518   29.8592 N.ar    1  UNL1       -0.3025
     33 C           3.6749   -0.6974   30.4509 C.ar    1  UNL1        0.0982
     34 C           2.6485   -0.6824   29.3571 C.ar    1  UNL1        0.1193
     35 N           3.3155   -1.1275   28.0895 N.ar    1  UNL1       -0.2223
     36 C           4.7540   -1.4176   28.3998 C.ar    1  UNL1        0.1788
@<TRIPOS>BOND
     1    22    23    1
     2    23    24    2
     3    23    25   am
     4    25    26    1
     5    26    27    1
     6    27    28    1
     7    28    16    1
     8    16    17   ar
     9    17    18   ar
    10    18    19   ar
    11    19    15    1
    12    15    14    1
    13    14     1    1
    14     1     2    1
    15     2     3    1
    16     3     4    1
    17     4    31    1
    18    31    32    1
    19    32    33   ar
    20    33    34   ar
    21    34    35   ar
    22    35    36   ar
    23     4     6    1
    24     6     7   ar
    25     7     8   ar
    26     8     9   ar
    27     9    10    1
    28     9    11   ar
    29    11    12   ar
    30    12    13    1
    31     4     5    1
    32    19    20   ar
    33    20    21   ar
    34    28    29    1
    35    29    30    1
    36    30    25    1
    37    21    16   ar
    38     5     1    1
    39    36    32   ar
    40    12     6   ar
@<TRIPOS>MOLECULE
*****
 36 40 0 0 0
SMALL
GASTEIGER

@<TRIPOS>ATOM
      1 C           6.3004   -1.9228   19.8294 C.3     1  UNL1        0.1909
      2 C           5.4536   -2.0345   18.5963 C.3     1  UNL1        0.1783
      3 O           4.4206   -0.9478   18.6433 O.3     1  UNL1       -0.3267
      4 C           4.6290   -0.1645   19.9055 C.3     1  UNL1        0.2296
      5 O           5.7908   -0.7671   20.6386 O.3     1  UNL1       -0.3255
      6 C           3.4598    0.6368   19.4149 C.ar    1  UNL1        0.0409
      7 C           3.6708    2.0244   18.8856 C.ar    1  UNL1        0.0022
      8 C           2.5015    2.8258   18.3950 C.ar    1  UNL1        0.0113
      9 C           1.1214    2.2395   18.4337 C.ar    1  UNL1        0.0585
     10 CL         -0.0479    3.0409   17.9431 Cl      1  UNL1       -0.0822
     11 C           0.9104    0.8519   18.9630 C.ar    1  UNL1        0.0226
     12 C           2.0796    0.0506   19.4535 C.ar    1  UNL1        0.0591
     13 CL          1.8687   -1.3370   19.9828 Cl      1  UNL1       -0.0824
     14 C           7.4542   -2.8109   20.1900 C.3     1  UNL1        0.2374
     15 O           7.2037   -4.1384   20.8418 O.3     1  UNL1       -0.4727
     16 C           7.0261   -4.4446   25.3279 C.ar    1  UNL1        0.0481
     17 C           6.0572   -3.5628   24.5974 C.ar    1  UNL1        0.0176
     18 C           6.1164   -3.4608   23.1020 C.ar    1  UNL1        0.0382
     19 C           7.1445   -4.2405   22.3372 C.ar    1  UNL1        0.1388
     20 C           8.1134   -5.1222   23.0677 C.ar    1  UNL1        0.0382
     21 C           8.0542   -5.2242   24.5630 C.ar    1  UNL1        0.0176
     22 C           6.6466   -3.6124   32.1406 C.3     1  UNL1        0.0948
     23 C           6.7893   -4.8527   31.3093 C.2     1  UNL1        0.2262
     24 O           6.8729   -6.1951   31.9733 O.2     1  UNL1       -0.2749
     25 N           6.8485   -4.7507   29.8139 N.am    1  UNL1       -0.2760
     26 C           6.7650   -3.4083   29.1499 C.3     1  UNL1        0.1148
     27 C           6.8242   -3.3063   27.6546 C.3     1  UNL1        0.1123
     28 N           6.9669   -4.5466   26.8232 N.pl3   1  UNL1       -0.3041
     29 C           7.0504   -5.8890   27.4873 C.3     1  UNL1        0.1123
     30 C           6.9912   -5.9910   28.9826 C.3     1  UNL1        0.1148
     31 C           4.5930    0.7862   21.0652 C.3     1  UNL1        0.1682
     32 N           4.4275    0.2614   22.4606 N.ar    1  UNL1       -0.3025
     33 C           3.2624   -0.5334   22.9711 C.ar    1  UNL1        0.0982
     34 C           3.5128   -0.8468   24.4165 C.ar    1  UNL1        0.1193
     35 N           4.8327   -0.2456   24.7992 N.ar    1  UNL1       -0.2223
     36 C           5.3980    0.4393   23.5904 C.ar    1  UNL1        0.1788
@<TRIPOS>BOND
     1    22    23    1
     2    23    24    2
     3    23    25   am
     4    25    26    1
     5    26    27    1
     6    27    28    1
     7    28    16    1
     8    16    17   ar
     9    17    18   ar
    10    18    19   ar
    11    19    15    1
    12    15    14    1
    13    14     1    1
    14     1     2    1
    15     2     3    1
    16     3     4    1
    17     4    31    1
    18    31    32    1
    19    32    33   ar
    20    33    34   ar
    21    34    35   ar
    22    35    36   ar
    23     4     6    1
    24     6     7   ar
    25     7     8   ar
    26     8     9   ar
    27     9    10    1
    28     9    11   ar
    29    11    12   ar
    30    12    13    1
    31     4     5    1
    32    19    20   ar
    33    20    21   ar
    34    28    29    1
    35    29    30    1
    36    30    25    1
    37    21    16   ar
    38     5     1    1
    39    36    32   ar
    40    12     6   ar
@<TRIPOS>MOLECULE
*****
 36 40 0 0 0
SMALL
GASTEIGER

@<TRIPOS>ATOM
      1 C           4.9616   -3.0337   19.9475 C.3     1  UNL1        0.1909
      2 C           3.4818   -3.2787   19.9579 C.3     1  UNL1        0.1783
      3 O           2.7912   -1.9490   19.8878 O.3     1  UNL1       -0.3267
      4 C           3.8443   -0.8821   19.8342 C.3     1  UNL1        0.2296
      5 O           5.1857   -1.5524   19.8711 O.3     1  UNL1       -0.3255
      6 C           2.6719    0.0521   19.7839 C.ar    1  UNL1        0.0409
      7 C           2.1718    0.5575   18.4630 C.ar    1  UNL1        0.0022
      8 C           0.9993    1.4918   18.4127 C.ar    1  UNL1        0.0113
      9 C           0.3269    1.9206   19.6831 C.ar    1  UNL1        0.0585
     10 CL         -0.8455    2.8549   19.6328 Cl      1  UNL1       -0.0822
     11 C           0.8271    1.4152   21.0040 C.ar    1  UNL1        0.0226
     12 C           1.9995    0.4810   21.0543 C.ar    1  UNL1        0.0591
     13 CL          2.4996   -0.0244   22.3751 Cl      1  UNL1       -0.0824
     14 C           6.0298   -4.0852   20.0038 C.3     1  UNL1        0.2374
     15 O           7.3016   -3.8230   20.7545 O.3     1  UNL1       -0.4727
     16 C           7.5961   -4.8773   25.1194 C.ar    1  UNL1        0.0481
     17 C           8.6072   -5.4118   24.1488 C.ar    1  UNL1        0.0176
     18 C           8.5090   -5.0603   22.6939 C.ar    1  UNL1        0.0382
     19 C           7.3998   -4.1744   22.2095 C.ar    1  UNL1        0.1388
     20 C           6.3887   -3.6399   23.1800 C.ar    1  UNL1        0.0382
     21 C           6.4869   -3.9913   24.6350 C.ar    1  UNL1        0.0176
     22 C           9.2906   -6.7638   31.5084 C.3     1  UNL1        0.0948
     23 C           7.9888   -6.2830   30.9391 C.2     1  UNL1        0.2262
     24 O           6.7852   -6.1537   31.8248 O.2     1  UNL1       -0.2749
     25 N           7.8906   -5.9316   29.4842 N.am    1  UNL1       -0.2760
     26 C           9.0943   -6.0609   28.5985 C.3     1  UNL1        0.1148
     27 C           8.9961   -5.7095   27.1436 C.3     1  UNL1        0.1123
     28 N           7.6943   -5.2287   26.5743 N.pl3   1  UNL1       -0.3041
     29 C           6.4907   -5.0994   27.4600 C.3     1  UNL1        0.1123
     30 C           6.5888   -5.4508   28.9149 C.3     1  UNL1        0.1148
     31 C           4.6523    0.3801   19.7700 C.3     1  UNL1        0.1682
     32 N           5.7583    0.5125   18.7654 N.ar    1  UNL1       -0.3025
     33 C           7.1556    0.9784   19.0487 C.ar    1  UNL1        0.0982
     34 C           7.9219    0.9560   17.7594 C.ar    1  UNL1        0.1193
     35 N           6.9982    0.4763   16.6793 N.ar    1  UNL1       -0.2223
     36 C           5.6610    0.2022   17.3011 C.ar    1  UNL1        0.1788
@<TRIPOS>BOND
     1    22    23    1
     2    23    24    2
     3    23    25   am
     4    25    26    1
     5    26    27    1
     6    27    28    1
     7    28    16    1
     8    16    17   ar
     9    17    18   ar
    10    18    19   ar
    11    19    15    1
    12    15    14    1
    13    14     1    1
    14     1     2    1
    15     2     3    1
    16     3     4    1
    17     4    31    1
    18    31    32    1
    19    32    33   ar
    20    33    34   ar
    21    34    35   ar
    22    35    36   ar
    23     4     6    1
    24     6     7   ar
    25     7     8   ar
    26     8     9   ar
    27     9    10    1
    28     9    11   ar
    29    11    12   ar
    30    12    13    1
    31     4     5    1
    32    19    20   ar
    33    20    21   ar
    34    28    29    1
    35    29    30    1
    36    30    25    1
    37    21    16   ar
    38     5     1    1
    39    36    32   ar
    40    12     6   ar
@<TRIPOS>MOLECULE
*****
 36 40 0 0 0
SMALL
GASTEIGER

@<TRIPOS>ATOM
      1 C           2.8158    0.6193   32.1356 C.3     1  UNL1        0.1909
      2 C           1.9965    1.8736   32.2084 C.3     1  UNL1        0.1783
      3 O           1.2936    2.0451   30.8945 O.3     1  UNL1       -0.3267
      4 C           1.6785    0.8968   30.0095 C.3     1  UNL1        0.2296
      5 O           2.6193    0.0155   30.7766 O.3     1  UNL1       -0.3255
      6 C           0.7790    1.5672   29.0140 C.ar    1  UNL1        0.0409
      7 C           1.1616    2.8963   28.4334 C.ar    1  UNL1        0.0022
      8 C           0.2620    3.5668   27.4378 C.ar    1  UNL1        0.0113
      9 C          -1.0202    2.9082   27.0229 C.ar    1  UNL1        0.0585
     10 CL         -1.9199    3.5787   26.0273 Cl      1  UNL1       -0.0822
     11 C          -1.4029    1.5791   27.6035 C.ar    1  UNL1        0.0226
     12 C          -0.5033    0.9086   28.5991 C.ar    1  UNL1        0.0591
     13 CL         -0.8859   -0.4204   29.1797 Cl      1  UNL1       -0.0824
     14 C           3.6800    0.0659   33.2297 C.3     1  UNL1        0.2374
     15 O           5.1441   -0.1548   32.9899 O.3     1  UNL1       -0.4727
     16 C           6.5096   -3.5642   30.3896 C.ar    1  UNL1        0.0481
     17 C           6.2981   -3.7796   31.8589 C.ar    1  UNL1        0.0176
     18 C           5.8430   -2.6431   32.7257 C.ar    1  UNL1        0.0382
     19 C           5.5993   -1.2913   32.1232 C.ar    1  UNL1        0.1388
     20 C           5.8107   -1.0759   30.6539 C.ar    1  UNL1        0.0382
     21 C           6.2659   -2.2123   29.7871 C.ar    1  UNL1        0.0176
     22 C           9.3304   -9.0980   27.4452 C.3     1  UNL1        0.0948
     23 C           8.3302   -8.1100   26.9225 C.2     1  UNL1        0.2262
     24 O           7.7850   -8.2585   25.5330 O.2     1  UNL1       -0.2749
     25 N           7.8750   -6.9736   27.7893 N.am    1  UNL1       -0.2760
     26 C           8.4201   -6.8251   29.1788 C.3     1  UNL1        0.1148
     27 C           7.9650   -5.6886   30.0455 C.3     1  UNL1        0.1123
     28 N           6.9647   -4.7006   29.5228 N.pl3   1  UNL1       -0.3041
     29 C           6.4196   -4.8491   28.1333 C.3     1  UNL1        0.1123
     30 C           6.8747   -5.9856   27.2666 C.3     1  UNL1        0.1148
     31 C           1.8754   -0.1115   28.9165 C.3     1  UNL1        0.1682
     32 N           3.1607   -0.1385   28.1436 N.ar    1  UNL1       -0.3025
     33 C           4.1817    0.9590   28.0920 C.ar    1  UNL1        0.0982
     34 C           5.3025    0.5080   27.2031 C.ar    1  UNL1        0.1193
     35 N           4.9742   -0.8684   26.7053 N.ar    1  UNL1       -0.2223
     36 C           3.6504   -1.2680   27.2865 C.ar    1  UNL1        0.1788
@<TRIPOS>BOND
     1    22    23    1
     2    23    24    2
     3    23    25   am
     4    25    26    1
     5    26    27    1
     6    27    28    1
     7    28    16    1
     8    16    17   ar
     9    17    18   ar
    10    18    19   ar
    11    19    15    1
    12    15    14    1
    13    14     1    1
    14     1     2    1
    15     2     3    1
    16     3     4    1
    17     4    31    1
    18    31    32    1
    19    32    33   ar
    20    33    34   ar
    21    34    35   ar
    22    35    36   ar
    23     4     6    1
    24     6     7   ar
    25     7     8   ar
    26     8     9   ar
    27     9    10    1
    28     9    11   ar
    29    11    12   ar
    30    12    13    1
    31     4     5    1
    32    19    20   ar
    33    20    21   ar
    34    28    29    1
    35    29    30    1
    36    30    25    1
    37    21    16   ar
    38     5     1    1
    39    36    32   ar
    40    12     6   ar
@<TRIPOS>MOLECULE
*****
 36 40 0 0 0
SMALL
GASTEIGER

@<TRIPOS>ATOM
      1 C           4.1261   -2.0261   18.4684 C.3     1  UNL1        0.1909
      2 C           4.1103   -1.1904   17.2229 C.3     1  UNL1        0.1783
      3 O           3.3483    0.0675   17.5182 O.3     1  UNL1       -0.3267
      4 C           2.8931    0.0092   18.9463 C.3     1  UNL1        0.2296
      5 O           3.3738   -1.2848   19.5336 O.3     1  UNL1       -0.3255
      6 C           2.2911    1.3493   18.6445 C.ar    1  UNL1        0.0409
      7 C           0.8059    1.4851   18.4828 C.ar    1  UNL1        0.0022
      8 C           0.2038    2.8254   18.1809 C.ar    1  UNL1        0.0113
      9 C           1.0867    4.0299   18.0407 C.ar    1  UNL1        0.0585
     10 CL          0.4846    5.3701   17.7388 Cl      1  UNL1       -0.0822
     11 C           2.5718    3.8941   18.2023 C.ar    1  UNL1        0.0226
     12 C           3.1739    2.5539   18.5042 C.ar    1  UNL1        0.0591
     13 CL          4.6590    2.4181   18.6658 Cl      1  UNL1       -0.0824
     14 C           4.7793   -3.3676   18.6218 C.3     1  UNL1        0.2374
     15 O           6.1181   -3.4780   19.2893 O.3     1  UNL1       -0.4727
     16 C           6.3748   -3.8887   23.7631 C.ar    1  UNL1        0.0481
     17 C           5.0450   -3.6674   23.1054 C.ar    1  UNL1        0.0176
     18 C           4.9594   -3.5305   21.6141 C.ar    1  UNL1        0.0382
     19 C           6.2036   -3.6149   20.7806 C.ar    1  UNL1        0.1388
     20 C           7.5334   -3.8361   21.4383 C.ar    1  UNL1        0.0382
     21 C           7.6190   -3.9730   22.9296 C.ar    1  UNL1        0.0176
     22 C           7.0937   -5.7529   30.3402 C.3     1  UNL1        0.0948
     23 C           6.7170   -4.4363   29.7283 C.2     1  UNL1        0.2262
     24 O           6.4259   -3.2565   30.6077 O.2     1  UNL1       -0.2749
     25 N           6.6315   -4.2994   28.2370 N.am    1  UNL1       -0.2760
     26 C           6.9226   -5.4791   27.3576 C.3     1  UNL1        0.1148
     27 C           6.8371   -5.3422   25.8663 C.3     1  UNL1        0.1123
     28 N           6.4603   -4.0256   25.2544 N.pl3   1  UNL1       -0.3041
     29 C           6.1692   -2.8458   26.1338 C.3     1  UNL1        0.1123
     30 C           6.2548   -2.9827   27.6251 C.3     1  UNL1        0.1148
     31 C           2.3121    0.2310   20.3114 C.3     1  UNL1        0.1682
     32 N           3.1841    0.1126   21.5261 N.ar    1  UNL1       -0.3025
     33 C           2.7797   -0.4681   22.8485 C.ar    1  UNL1        0.0982
     34 C           3.9594   -0.3854   23.7713 C.ar    1  UNL1        0.1193
     35 N           5.0929    0.2465   23.0191 N.ar    1  UNL1       -0.2223
     36 C           4.6137    0.5543   21.6315 C.ar    1  UNL1        0.1788
@<TRIPOS>BOND
     1    22    23    1
     2    23    24    2
     3    23    25   am
     4    25    26    1
     5    26    27    1
     6    27    28    1
     7    28    16    1
     8    16    17   ar
     9    17    18   ar
    10    18    19   ar
    11    19    15    1
    12    15    14    1
    13    14     1    1
    14     1     2    1
    15     2     3    1
    16     3     4    1
    17     4    31    1
    18    31    32    1
    19    32    33   ar
    20    33    34   ar
    21    34    35   ar
    22    35    36   ar
    23     4     6    1
    24     6     7   ar
    25     7     8   ar
    26     8     9   ar
    27     9    10    1
    28     9    11   ar
    29    11    12   ar
    30    12    13    1
    31     4     5    1
    32    19    20   ar
    33    20    21   ar
    34    28    29    1
    35    29    30    1
    36    30    25    1
    37    21    16   ar
    38     5     1    1
    39    36    32   ar
    40    12     6   ar
@<TRIPOS>MOLECULE
*****
 36 40 0 0 0
SMALL
GASTEIGER

@<TRIPOS>ATOM
      1 C          -0.6632    3.2007   20.0393 C.3     1  UNL1        0.1909
      2 C          -0.3552    2.6567   21.4028 C.3     1  UNL1        0.1783
      3 O          -1.3796    3.1931   22.3583 O.3     1  UNL1       -0.3267
      4 C          -2.3207    4.0687   21.5853 C.3     1  UNL1        0.2296
      5 O          -1.8781    4.0735   20.1521 O.3     1  UNL1       -0.3255
      6 C          -2.9894    4.2551   22.9150 C.ar    1  UNL1        0.0409
      7 C          -4.1314    3.3669   23.3113 C.ar    1  UNL1        0.0022
      8 C          -4.8001    3.5533   24.6410 C.ar    1  UNL1        0.0113
      9 C          -4.3268    4.6279   25.5744 C.ar    1  UNL1        0.0585
     10 CL         -4.9955    4.8144   26.9041 Cl      1  UNL1       -0.0822
     11 C          -3.1848    5.5162   25.1781 C.ar    1  UNL1        0.0226
     12 C          -2.5162    5.3297   23.8484 C.ar    1  UNL1        0.0591
     13 CL         -1.3742    6.2179   23.4521 Cl      1  UNL1       -0.0824
     14 C           0.1081    2.9212   18.7836 C.3     1  UNL1        0.2374
     15 O           0.2235    1.5161   18.2714 O.3     1  UNL1       -0.4727
     16 C           3.5939   -1.1181   19.6681 C.ar    1  UNL1        0.0481
     17 C           3.8385   -0.0867   18.6069 C.ar    1  UNL1        0.0176
     18 C           2.7150    0.7914   18.1413 C.ar    1  UNL1        0.0382
     19 C           1.3470    0.6381   18.7370 C.ar    1  UNL1        0.1388
     20 C           1.1024   -0.3934   19.7982 C.ar    1  UNL1        0.0382
     21 C           2.2258   -1.2715   20.2638 C.ar    1  UNL1        0.0176
     22 C           9.3749   -4.6726   20.7615 C.3     1  UNL1        0.0948
     23 C           8.0878   -4.6305   21.5305 C.2     1  UNL1        0.2262
     24 O           7.9241   -5.4665   22.7651 O.2     1  UNL1       -0.2749
     25 N           6.9643   -3.7524   21.0649 N.am    1  UNL1       -0.2760
     26 C           7.1280   -2.9164   19.8303 C.3     1  UNL1        0.1148
     27 C           6.0045   -2.0383   19.3648 C.3     1  UNL1        0.1123
     28 N           4.7174   -1.9962   20.1337 N.pl3   1  UNL1       -0.3041
     29 C           4.5537   -2.8322   21.3683 C.3     1  UNL1        0.1123
     30 C           5.6771   -3.7103   21.8339 C.3     1  UNL1        0.1148
     31 C          -3.4017    4.9833   21.0903 C.3     1  UNL1        0.1682
     32 N          -4.3004    4.5460   19.9717 N.ar    1  UNL1       -0.3025
     33 C          -4.4912    5.2568   18.6648 C.ar    1  UNL1        0.0982
     34 C          -5.4748    4.4712   17.8491 C.ar    1  UNL1        0.1193
     35 N          -5.8918    3.2747   18.6520 N.ar    1  UNL1       -0.2223
     36 C          -5.1659    3.3209   19.9638 C.ar    1  UNL1        0.1788
@<TRIPOS>BOND
     1    22    23    1
     2    23    24    2
     3    23    25   am
     4    25    26    1
     5    26    27    1
     6    27    28    1
     7    28    16    1
     8    16    17   ar
     9    17    18   ar
    10    18    19   ar
    11    19    15    1
    12    15    14    1
    13    14     1    1
    14     1     2    1
    15     2     3    1
    16     3     4    1
    17     4    31    1
    18    31    32    1
    19    32    33   ar
    20    33    34   ar
    21    34    35   ar
    22    35    36   ar
    23     4     6    1
    24     6     7   ar
    25     7     8   ar
    26     8     9   ar
    27     9    10    1
    28     9    11   ar
    29    11    12   ar
    30    12    13    1
    31     4     5    1
    32    19    20   ar
    33    20    21   ar
    34    28    29    1
    35    29    30    1
    36    30    25    1
    37    21    16   ar
    38     5     1    1
    39    36    32   ar
    40    12     6   ar
@<TRIPOS>MOLECULE
*****
 36 40 0 0 0
SMALL
GASTEIGER

@<TRIPOS>ATOM
      1 C           6.5718   -4.0898   30.1410 C.3     1  UNL1        0.1909
      2 C           6.8412   -4.5705   31.5361 C.3     1  UNL1        0.1783
      3 O           6.5791   -3.4323   32.4774 O.3     1  UNL1       -0.3267
      4 C           6.1477   -2.2481   31.6640 C.3     1  UNL1        0.2296
      5 O           6.1431   -2.6544   30.2200 O.3     1  UNL1       -0.3255
      6 C           6.0582   -1.5644   32.9960 C.ar    1  UNL1        0.0409
      7 C           4.7905   -1.6406   33.7945 C.ar    1  UNL1        0.0022
      8 C           4.7010   -0.9569   35.1266 C.ar    1  UNL1        0.0113
      9 C           5.8790   -0.1970   35.6602 C.ar    1  UNL1        0.0585
     10 CL          5.7894    0.4868   36.9923 Cl      1  UNL1       -0.0822
     11 C           7.1466   -0.1207   34.8618 C.ar    1  UNL1        0.0226
     12 C           7.2361   -0.8045   33.5298 C.ar    1  UNL1        0.0591
     13 CL          8.5037   -0.7283   32.7313 Cl      1  UNL1       -0.0824
     14 C           6.7071   -4.9017   28.8871 C.3     1  UNL1        0.2374
     15 O           7.5616   -4.4035   27.7595 O.3     1  UNL1       -0.4727
     16 C           5.6408   -2.8117   24.0143 C.ar    1  UNL1        0.0481
     17 C           5.5290   -2.0450   25.2987 C.ar    1  UNL1        0.0176
     18 C           6.1692   -2.5756   26.5471 C.ar    1  UNL1        0.0382
     19 C           6.9214   -3.8729   26.5111 C.ar    1  UNL1        0.1388
     20 C           7.0332   -4.6395   25.2267 C.ar    1  UNL1        0.0382
     21 C           6.3929   -4.1089   23.9783 C.ar    1  UNL1        0.0176
     22 C           3.7599   -0.8661   17.6955 C.3     1  UNL1        0.0948
     23 C           3.0797   -0.6893   19.0206 C.2     1  UNL1        0.2262
     24 O           1.7593    0.0181   19.0974 O.2     1  UNL1       -0.2749
     25 N           3.7200   -1.2199   20.2691 N.am    1  UNL1       -0.2760
     26 C           5.0405   -1.9273   20.1923 C.3     1  UNL1        0.1148
     27 C           5.6807   -2.4579   21.4407 C.3     1  UNL1        0.1123
     28 N           5.0006   -2.2811   22.7659 N.pl3   1  UNL1       -0.3041
     29 C           3.6801   -1.5736   22.8426 C.3     1  UNL1        0.1123
     30 C           3.0399   -1.0430   21.5942 C.3     1  UNL1        0.1148
     31 C           5.6975   -0.9210   31.1290 C.3     1  UNL1        0.1682
     32 N           4.3561   -0.7939   30.4698 N.ar    1  UNL1       -0.3025
     33 C           4.1040   -0.7041   28.9940 C.ar    1  UNL1        0.0982
     34 C           2.6234   -0.5890   28.7828 C.ar    1  UNL1        0.1193
     35 N           1.9605   -0.6077   30.1283 N.ar    1  UNL1       -0.2223
     36 C           3.0314   -0.7343   31.1709 C.ar    1  UNL1        0.1788
@<TRIPOS>BOND
     1    22    23    1
     2    23    24    2
     3    23    25   am
     4    25    26    1
     5    26    27    1
     6    27    28    1
     7    28    16    1
     8    16    17   ar
     9    17    18   ar
    10    18    19   ar
    11    19    15    1
    12    15    14    1
    13    14     1    1
    14     1     2    1
    15     2     3    1
    16     3     4    1
    17     4    31    1
    18    31    32    1
    19    32    33   ar
    20    33    34   ar
    21    34    35   ar
    22    35    36   ar
    23     4     6    1
    24     6     7   ar
    25     7     8   ar
    26     8     9   ar
    27     9    10    1
    28     9    11   ar
    29    11    12   ar
    30    12    13    1
    31     4     5    1
    32    19    20   ar
    33    20    21   ar
    34    28    29    1
    35    29    30    1
    36    30    25    1
    37    21    16   ar
    38     5     1    1
    39    36    32   ar
    40    12     6   ar
