@<TRIPOS>MOLECULE
*****
 28 29 0 0 0
SMALL
GASTEIGER

@<TRIPOS>ATOM
      1 N          -8.2972  -17.9792   20.9990 N.3     1  UNL1       -0.2972
      2 H          -8.4114  -17.7188   20.0194 H       1  UNL1        0.1233
      3 C          -7.2370  -19.0395   21.0444 C.3     1  UNL1        0.0461
      4 C          -6.6949  -18.4432   22.3094 C.3     1  UNL1        0.0161
      5 C          -7.7792  -19.6359   19.7793 C.3     1  UNL1        0.0161
      6 C          -6.1770  -20.0998   21.0899 C.3     1  UNL1        0.0408
      7 C          -1.8831  -19.0245   20.2796 C.ar    1  UNL1        0.1387
      8 C          -2.9329  -18.7515   19.2437 C.ar    1  UNL1        0.0366
      9 C          -4.3642  -19.1100   19.5137 C.ar    1  UNL1       -0.0011
     10 C          -4.7457  -19.7413   20.8198 C.ar    1  UNL1       -0.0207
     11 C          -3.6958  -20.0143   21.8558 C.ar    1  UNL1       -0.0011
     12 C          -2.2646  -19.6559   21.5857 C.ar    1  UNL1        0.0366
     13 C          -0.0316  -17.2264   19.9815 C.3     1  UNL1        0.2525
     14 O          -0.4518  -18.6661   20.0096 O.3     1  UNL1       -0.4714
     15 C          -9.6689  -18.2668   21.5334 C.3     1  UNL1        0.1020
     16 C         -10.3604  -17.2607   22.4050 C.3     1  UNL1        0.1697
     17 O         -11.2858  -16.2500   21.7948 O.3     1  UNL1       -0.3793
     18 H         -11.3241  -16.3847   20.8350 H       1  UNL1        0.2106
     19 C         -10.1265  -17.2653   23.8866 C.3     1  UNL1        0.2358
     20 O          -9.8030  -15.9854   24.5987 O.3     1  UNL1       -0.4721
     21 C          -8.4338  -15.7721   25.1731 C.ar    1  UNL1        0.1482
     22 C          -8.1896  -16.0020   26.6351 C.ar    1  UNL1        0.0376
     23 C          -6.8204  -15.7887   27.2094 C.ar    1  UNL1        0.0032
     24 C          -5.6955  -15.3456   26.3217 C.ar    1  UNL1        0.0009
     25 C          -5.9396  -15.1157   24.8597 C.ar    1  UNL1        0.0133
     26 C          -7.3088  -15.3290   24.2854 C.ar    1  UNL1        0.1023
     27 C          -7.5530  -15.0991   22.8233 C.1     1  UNL1        0.1035
     28 N          -7.7971  -14.8692   21.3613 N.1     1  UNL1       -0.1907
@<TRIPOS>BOND
     1    13    14    1
     2    14     7    1
     3     7     8   ar
     4     8     9   ar
     5     9    10   ar
     6    10     6    1
     7     6     3    1
     8     3     4    1
     9     3     5    1
    10     3     1    1
    11     1    15    1
    12    15    16    1
    13    16    17    1
    14    16    19    1
    15    19    20    1
    16    20    21    1
    17    21    22   ar
    18    22    23   ar
    19    23    24   ar
    20    24    25   ar
    21    25    26   ar
    22    26    27    1
    23    27    28    3
    24    10    11   ar
    25    11    12   ar
    26    12     7   ar
    27    26    21   ar
    28     1     2    1
    29    17    18    1
@<TRIPOS>MOLECULE
*****
 28 29 0 0 0
SMALL
GASTEIGER

@<TRIPOS>ATOM
      1 N          -7.7005  -17.9453   21.3040 N.3     1  UNL1       -0.2972
      2 H          -8.5869  -18.4329   21.4339 H       1  UNL1        0.1233
      3 C          -6.6542  -18.9986   21.0899 C.3     1  UNL1        0.0461
      4 C          -7.3466  -19.4306   19.8315 C.3     1  UNL1        0.0161
      5 C          -5.9617  -18.5665   22.3484 C.3     1  UNL1        0.0161
      6 C          -5.6079  -20.0518   20.8758 C.3     1  UNL1        0.0408
      7 C          -1.3524  -18.8571   20.0312 C.ar    1  UNL1        0.1387
      8 C          -1.6862  -19.6042   21.2883 C.ar    1  UNL1        0.0366
      9 C          -3.1047  -20.0024   21.5698 C.ar    1  UNL1       -0.0011
     10 C          -4.1894  -19.6536   20.5943 C.ar    1  UNL1       -0.0207
     11 C          -3.8555  -18.9064   19.3372 C.ar    1  UNL1       -0.0011
     12 C          -2.4370  -18.5082   19.0557 C.ar    1  UNL1        0.0366
     13 C           0.5303  -17.0669   20.0612 C.3     1  UNL1        0.2525
     14 O           0.0661  -18.4588   19.7497 O.3     1  UNL1       -0.4714
     15 C          -7.5682  -16.9770   22.4420 C.3     1  UNL1        0.1020
     16 C          -8.3836  -15.7180   22.4542 C.3     1  UNL1        0.1697
     17 O          -8.0217  -14.5813   21.5449 O.3     1  UNL1       -0.3793
     18 H          -7.2423  -14.8225   21.0202 H       1  UNL1        0.2106
     19 C          -9.5608  -15.5957   23.3756 C.3     1  UNL1        0.2358
     20 O         -10.8809  -16.1941   22.9893 O.3     1  UNL1       -0.4721
     21 C         -10.9317  -17.5520   22.3539 C.ar    1  UNL1        0.1482
     22 C         -10.8625  -18.7829   23.2084 C.ar    1  UNL1        0.0376
     23 C         -10.9133  -20.1407   22.5730 C.ar    1  UNL1        0.0032
     24 C         -11.0332  -20.2676   21.0833 C.ar    1  UNL1        0.0009
     25 C         -11.1024  -19.0367   20.2288 C.ar    1  UNL1        0.0133
     26 C         -11.0516  -17.6789   20.8642 C.ar    1  UNL1        0.1023
     27 C         -11.1207  -16.4480   20.0097 C.1     1  UNL1        0.1035
     28 N         -11.1899  -15.2171   19.1553 N.1     1  UNL1       -0.1907
@<TRIPOS>BOND
     1    13    14    1
     2    14     7    1
     3     7     8   ar
     4     8     9   ar
     5     9    10   ar
     6    10     6    1
     7     6     3    1
     8     3     4    1
     9     3     5    1
    10     3     1    1
    11     1    15    1
    12    15    16    1
    13    16    17    1
    14    16    19    1
    15    19    20    1
    16    20    21    1
    17    21    22   ar
    18    22    23   ar
    19    23    24   ar
    20    24    25   ar
    21    25    26   ar
    22    26    27    1
    23    27    28    3
    24    10    11   ar
    25    11    12   ar
    26    12     7   ar
    27    26    21   ar
    28     1     2    1
    29    17    18    1
@<TRIPOS>MOLECULE
*****
 28 29 0 0 0
SMALL
GASTEIGER

@<TRIPOS>ATOM
      1 N          -8.1344  -18.5125   20.7069 N.3     1  UNL1       -0.2972
      2 H          -7.7907  -17.7422   20.1334 H       1  UNL1        0.1233
      3 C          -6.9292  -19.2611   21.1940 C.3     1  UNL1        0.0461
      4 C          -7.1328  -20.2878   20.1196 C.3     1  UNL1        0.0161
      5 C          -6.7257  -18.2344   22.2684 C.3     1  UNL1        0.0161
      6 C          -5.7241  -20.0097   21.6810 C.3     1  UNL1        0.0408
      7 C          -1.6279  -18.8953   20.1878 C.ar    1  UNL1        0.1387
      8 C          -2.7768  -18.9869   19.2279 C.ar    1  UNL1        0.0366
      9 C          -4.1422  -19.3584   19.7256 C.ar    1  UNL1       -0.0011
     10 C          -4.3587  -19.6382   21.1833 C.ar    1  UNL1       -0.0207
     11 C          -3.2098  -19.5465   22.1432 C.ar    1  UNL1       -0.0011
     12 C          -1.8444  -19.1751   21.6455 C.ar    1  UNL1        0.0366
     13 C           0.3557  -17.2198   20.0991 C.3     1  UNL1        0.2525
     14 O          -0.2625  -18.5238   19.6901 O.3     1  UNL1       -0.4714
     15 C          -9.1811  -19.2205   19.8988 C.3     1  UNL1        0.1020
     16 C         -10.6308  -19.0723   20.2544 C.3     1  UNL1        0.1697
     17 O         -11.5596  -18.3446   19.3282 O.3     1  UNL1       -0.3793
     18 H         -11.0661  -18.0360   18.5522 H       1  UNL1        0.2106
     19 C         -11.1517  -19.6517   21.5361 C.3     1  UNL1        0.2358
     20 O         -11.6851  -18.7462   22.6063 O.3     1  UNL1       -0.4721
     21 C         -10.7413  -18.0725   23.5579 C.ar    1  UNL1        0.1482
     22 C         -10.4342  -18.7045   24.8831 C.ar    1  UNL1        0.0376
     23 C          -9.4905  -18.0309   25.8347 C.ar    1  UNL1        0.0032
     24 C          -8.8539  -16.7251   25.4610 C.ar    1  UNL1        0.0009
     25 C          -9.1610  -16.0931   24.1358 C.ar    1  UNL1        0.0133
     26 C         -10.1047  -16.7667   23.1843 C.ar    1  UNL1        0.1023
     27 C         -10.4118  -16.1346   21.8591 C.1     1  UNL1        0.1035
     28 N         -10.7189  -15.5025   20.5339 N.1     1  UNL1       -0.1907
@<TRIPOS>BOND
     1    13    14    1
     2    14     7    1
     3     7     8   ar
     4     8     9   ar
     5     9    10   ar
     6    10     6    1
     7     6     3    1
     8     3     4    1
     9     3     5    1
    10     3     1    1
    11     1    15    1
    12    15    16    1
    13    16    17    1
    14    16    19    1
    15    19    20    1
    16    20    21    1
    17    21    22   ar
    18    22    23   ar
    19    23    24   ar
    20    24    25   ar
    21    25    26   ar
    22    26    27    1
    23    27    28    3
    24    10    11   ar
    25    11    12   ar
    26    12     7   ar
    27    26    21   ar
    28     1     2    1
    29    17    18    1
@<TRIPOS>MOLECULE
*****
 28 29 0 0 0
SMALL
GASTEIGER

@<TRIPOS>ATOM
      1 N          -6.9028  -17.5880   22.3550 N.3     1  UNL1       -0.2972
      2 H          -6.3379  -17.2270   21.5862 H       1  UNL1        0.1233
      3 C          -8.2354  -17.9602   21.7755 C.3     1  UNL1        0.0461
      4 C          -7.8189  -19.4008   21.7430 C.3     1  UNL1        0.0161
      5 C          -8.6520  -16.5196   21.8080 C.3     1  UNL1        0.0161
      6 C          -9.5679  -18.3324   21.1961 C.3     1  UNL1        0.0408
      7 C         -13.2652  -18.1466   23.7545 C.ar    1  UNL1        0.1387
      8 C         -11.9616  -18.5875   24.3513 C.ar    1  UNL1        0.0366
      9 C         -10.7292  -18.6494   23.4984 C.ar    1  UNL1       -0.0011
     10 C         -10.8004  -18.2705   22.0489 C.ar    1  UNL1       -0.0207
     11 C         -12.1040  -17.8297   21.4521 C.ar    1  UNL1       -0.0011
     12 C         -13.3364  -17.7677   22.3049 C.ar    1  UNL1        0.0366
     13 C         -14.4406  -18.5229   26.0407 C.3     1  UNL1        0.2525
     14 O         -14.4976  -18.0847   24.6073 O.3     1  UNL1       -0.4714
     15 C          -6.8218  -16.5796   23.4625 C.3     1  UNL1        0.1020
     16 C          -5.4845  -16.1009   23.9446 C.3     1  UNL1        0.1697
     17 O          -5.3666  -14.7732   24.6326 O.3     1  UNL1       -0.3793
     18 H          -6.2412  -14.3567   24.6837 H       1  UNL1        0.2106
     19 C          -4.2651  -16.9498   23.7388 C.3     1  UNL1        0.2358
     20 O          -4.2186  -17.9337   22.6076 O.3     1  UNL1       -0.4721
     21 C          -3.1489  -17.8242   21.5617 C.ar    1  UNL1        0.1482
     22 C          -2.1087  -16.7481   21.6626 C.ar    1  UNL1        0.0376
     23 C          -1.0390  -16.6385   20.6169 C.ar    1  UNL1        0.0032
     24 C          -1.0095  -17.6050   19.4702 C.ar    1  UNL1        0.0009
     25 C          -2.0496  -18.6811   19.3693 C.ar    1  UNL1        0.0133
     26 C          -3.1193  -18.7907   20.4150 C.ar    1  UNL1        0.1023
     27 C          -4.1594  -19.8668   20.3141 C.1     1  UNL1        0.1035
     28 N          -5.1995  -20.9429   20.2132 N.1     1  UNL1       -0.1907
@<TRIPOS>BOND
     1    13    14    1
     2    14     7    1
     3     7     8   ar
     4     8     9   ar
     5     9    10   ar
     6    10     6    1
     7     6     3    1
     8     3     4    1
     9     3     5    1
    10     3     1    1
    11     1    15    1
    12    15    16    1
    13    16    17    1
    14    16    19    1
    15    19    20    1
    16    20    21    1
    17    21    22   ar
    18    22    23   ar
    19    23    24   ar
    20    24    25   ar
    21    25    26   ar
    22    26    27    1
    23    27    28    3
    24    10    11   ar
    25    11    12   ar
    26    12     7   ar
    27    26    21   ar
    28     1     2    1
    29    17    18    1
@<TRIPOS>MOLECULE
*****
 28 29 0 0 0
SMALL
GASTEIGER

@<TRIPOS>ATOM
      1 N          -8.6408  -18.2273   20.6501 N.3     1  UNL1       -0.2972
      2 H          -8.6446  -18.0203   19.6513 H       1  UNL1        0.1233
      3 C          -7.5328  -19.2111   20.8842 C.3     1  UNL1        0.0461
      4 C          -7.8678  -19.8957   19.5923 C.3     1  UNL1        0.0161
      5 C          -7.1978  -18.5265   22.1761 C.3     1  UNL1        0.0161
      6 C          -6.4249  -20.1948   21.1182 C.3     1  UNL1        0.0408
      7 C          -2.1488  -18.9735   20.4300 C.ar    1  UNL1        0.1387
      8 C          -3.1249  -18.9613   19.2911 C.ar    1  UNL1        0.0366
      9 C          -4.5503  -19.3684   19.5205 C.ar    1  UNL1       -0.0011
     10 C          -4.9995  -19.7877   20.8888 C.ar    1  UNL1       -0.0207
     11 C          -4.0235  -19.7999   22.0277 C.ar    1  UNL1       -0.0011
     12 C          -2.5981  -19.3928   21.7983 C.ar    1  UNL1        0.0366
     13 C          -0.3338  -17.1203   20.2836 C.3     1  UNL1        0.2525
     14 O          -0.7235  -18.5664   20.2006 O.3     1  UNL1       -0.4714
     15 C         -10.0495  -18.5813   21.0243 C.3     1  UNL1        0.1020
     16 C         -11.0002  -17.5085   21.4665 C.3     1  UNL1        0.1697
     17 O         -12.3964  -17.4716   20.9195 O.3     1  UNL1       -0.3793
     18 H         -12.5195  -18.2058   20.2977 H       1  UNL1        0.2106
     19 C         -10.5547  -16.4728   22.4558 C.3     1  UNL1        0.2358
     20 O          -9.1588  -16.5104   23.0037 O.3     1  UNL1       -0.4721
     21 C          -8.9328  -16.4516   24.4854 C.ar    1  UNL1        0.1482
     22 C          -8.3366  -15.2224   25.1049 C.ar    1  UNL1        0.0376
     23 C          -8.1106  -15.1636   26.5866 C.ar    1  UNL1        0.0032
     24 C          -8.4808  -16.3338   27.4488 C.ar    1  UNL1        0.0009
     25 C          -9.0770  -17.5630   26.8293 C.ar    1  UNL1        0.0133
     26 C          -9.3030  -17.6218   25.3476 C.ar    1  UNL1        0.1023
     27 C          -9.8992  -18.8510   24.7281 C.1     1  UNL1        0.1035
     28 N         -10.4954  -20.0801   24.1086 N.1     1  UNL1       -0.1907
@<TRIPOS>BOND
     1    13    14    1
     2    14     7    1
     3     7     8   ar
     4     8     9   ar
     5     9    10   ar
     6    10     6    1
     7     6     3    1
     8     3     4    1
     9     3     5    1
    10     3     1    1
    11     1    15    1
    12    15    16    1
    13    16    17    1
    14    16    19    1
    15    19    20    1
    16    20    21    1
    17    21    22   ar
    18    22    23   ar
    19    23    24   ar
    20    24    25   ar
    21    25    26   ar
    22    26    27    1
    23    27    28    3
    24    10    11   ar
    25    11    12   ar
    26    12     7   ar
    27    26    21   ar
    28     1     2    1
    29    17    18    1
@<TRIPOS>MOLECULE
*****
 28 29 0 0 0
SMALL
GASTEIGER

@<TRIPOS>ATOM
      1 N          -6.2301  -14.8882   25.1504 N.3     1  UNL1       -0.2972
      2 H          -6.1884  -13.9835   25.6196 H       1  UNL1        0.1233
      3 C          -7.6810  -15.2534   25.0420 C.3     1  UNL1        0.0461
      4 C          -7.6675  -14.8762   23.5903 C.3     1  UNL1        0.0161
      5 C          -7.6945  -15.6306   26.4937 C.3     1  UNL1        0.0161
      6 C          -9.1318  -15.6185   24.9337 C.3     1  UNL1        0.0408
      7 C         -10.4636  -18.6721   21.9084 C.ar    1  UNL1        0.1387
      8 C          -9.3121  -18.9734   22.8213 C.ar    1  UNL1        0.0366
      9 C          -8.8682  -17.9555   23.8297 C.ar    1  UNL1       -0.0011
     10 C          -9.5757  -16.6364   23.9253 C.ar    1  UNL1       -0.0207
     11 C         -10.7272  -16.3351   23.0125 C.ar    1  UNL1       -0.0011
     12 C         -11.1711  -17.3530   22.0040 C.ar    1  UNL1        0.0366
     13 C         -10.2642  -19.7341   19.5458 C.3     1  UNL1        0.2525
     14 O         -10.9075  -19.6900   20.9000 O.3     1  UNL1       -0.4714
     15 C          -5.2803  -15.7957   25.8745 C.3     1  UNL1        0.1020
     16 C          -4.4791  -16.8072   25.1096 C.3     1  UNL1        0.1697
     17 O          -3.7014  -17.8588   25.8440 O.3     1  UNL1       -0.3793
     18 H          -3.8241  -17.7435   26.7993 H       1  UNL1        0.2106
     19 C          -4.4557  -16.7672   23.6103 C.3     1  UNL1        0.2358
     20 O          -3.5816  -17.7186   22.8483 O.3     1  UNL1       -0.4721
     21 C          -4.2002  -18.7786   21.9858 C.ar    1  UNL1        0.1482
     22 C          -5.6117  -19.2201   22.2364 C.ar    1  UNL1        0.0376
     23 C          -6.2303  -20.2800   21.3740 C.ar    1  UNL1        0.0032
     24 C          -5.4375  -20.8984   20.2610 C.ar    1  UNL1        0.0009
     25 C          -4.0260  -20.4569   20.0103 C.ar    1  UNL1        0.0133
     26 C          -3.4074  -19.3970   20.8728 C.ar    1  UNL1        0.1023
     27 C          -1.9959  -18.9555   20.6221 C.1     1  UNL1        0.1035
     28 N          -0.5844  -18.5139   20.3715 N.1     1  UNL1       -0.1907
@<TRIPOS>BOND
     1    13    14    1
     2    14     7    1
     3     7     8   ar
     4     8     9   ar
     5     9    10   ar
     6    10     6    1
     7     6     3    1
     8     3     4    1
     9     3     5    1
    10     3     1    1
    11     1    15    1
    12    15    16    1
    13    16    17    1
    14    16    19    1
    15    19    20    1
    16    20    21    1
    17    21    22   ar
    18    22    23   ar
    19    23    24   ar
    20    24    25   ar
    21    25    26   ar
    22    26    27    1
    23    27    28    3
    24    10    11   ar
    25    11    12   ar
    26    12     7   ar
    27    26    21   ar
    28     1     2    1
    29    17    18    1
@<TRIPOS>MOLECULE
*****
 28 29 0 0 0
SMALL
GASTEIGER

@<TRIPOS>ATOM
      1 N          -6.9988  -14.7026   24.9645 N.3     1  UNL1       -0.2972
      2 H          -7.1580  -14.1221   25.7880 H       1  UNL1        0.1233
      3 C          -8.2068  -15.5789   24.8124 C.3     1  UNL1        0.0461
      4 C          -8.0864  -15.9941   26.2487 C.3     1  UNL1        0.0161
      5 C          -8.3271  -15.1637   23.3760 C.3     1  UNL1        0.0161
      6 C          -9.4147  -16.4551   24.6603 C.3     1  UNL1        0.0408
      7 C          -9.9055  -18.9907   20.9751 C.ar    1  UNL1        0.1387
      8 C         -11.0375  -18.1276   21.4479 C.ar    1  UNL1        0.0366
      9 C         -10.8739  -17.2824   22.6763 C.ar    1  UNL1       -0.0011
     10 C          -9.5783  -17.3003   23.4319 C.ar    1  UNL1       -0.0207
     11 C          -8.4462  -18.1633   22.9591 C.ar    1  UNL1       -0.0011
     12 C          -8.6098  -19.0085   21.7307 C.ar    1  UNL1        0.0366
     13 C          -8.8882  -20.1129   18.8643 C.3     1  UNL1        0.2525
     14 O         -10.0691  -19.8358   19.7468 O.3     1  UNL1       -0.4714
     15 C          -5.6407  -15.3188   25.1250 C.3     1  UNL1        0.1020
     16 C          -4.8152  -15.6405   23.9146 C.3     1  UNL1        0.1697
     17 O          -4.6665  -14.6283   22.8176 O.3     1  UNL1       -0.3793
     18 H          -5.1633  -13.8274   23.0471 H       1  UNL1        0.2106
     19 C          -4.1383  -16.9743   23.8012 C.3     1  UNL1        0.2358
     20 O          -4.3185  -17.8039   22.5646 O.3     1  UNL1       -0.4721
     21 C          -3.2602  -17.8052   21.5015 C.ar    1  UNL1        0.1482
     22 C          -2.1429  -16.8058   21.5543 C.ar    1  UNL1        0.0376
     23 C          -1.0847  -16.8070   20.4913 C.ar    1  UNL1        0.0032
     24 C          -1.1438  -17.8076   19.3754 C.ar    1  UNL1        0.0009
     25 C          -2.2611  -18.8070   19.3225 C.ar    1  UNL1        0.0133
     26 C          -3.3194  -18.8058   20.3856 C.ar    1  UNL1        0.1023
     27 C          -4.4367  -19.8052   20.3327 C.1     1  UNL1        0.1035
     28 N          -5.5540  -20.8045   20.2799 N.1     1  UNL1       -0.1907
@<TRIPOS>BOND
     1    13    14    1
     2    14     7    1
     3     7     8   ar
     4     8     9   ar
     5     9    10   ar
     6    10     6    1
     7     6     3    1
     8     3     4    1
     9     3     5    1
    10     3     1    1
    11     1    15    1
    12    15    16    1
    13    16    17    1
    14    16    19    1
    15    19    20    1
    16    20    21    1
    17    21    22   ar
    18    22    23   ar
    19    23    24   ar
    20    24    25   ar
    21    25    26   ar
    22    26    27    1
    23    27    28    3
    24    10    11   ar
    25    11    12   ar
    26    12     7   ar
    27    26    21   ar
    28     1     2    1
    29    17    18    1
@<TRIPOS>MOLECULE
*****
 28 29 0 0 0
SMALL
GASTEIGER

@<TRIPOS>ATOM
      1 N          -8.1699  -19.4687   21.6055 N.3     1  UNL1       -0.2972
      2 H          -8.8932  -19.8512   20.9966 H       1  UNL1        0.1233
      3 C          -6.8549  -19.9627   21.0793 C.3     1  UNL1        0.0461
      4 C          -7.0915  -19.2245   19.7951 C.3     1  UNL1        0.0161
      5 C          -6.6182  -20.7009   22.3634 C.3     1  UNL1        0.0161
      6 C          -5.5400  -20.4566   20.5530 C.3     1  UNL1        0.0408
      7 C          -1.9639  -17.7254   20.5114 C.ar    1  UNL1        0.1387
      8 C          -2.7186  -17.9535   21.7874 C.ar    1  UNL1        0.0366
      9 C          -3.9106  -18.8639   21.8013 C.ar    1  UNL1       -0.0011
     10 C          -4.3480  -19.5462   20.5391 C.ar    1  UNL1       -0.0207
     11 C          -3.5933  -19.3181   19.2631 C.ar    1  UNL1       -0.0011
     12 C          -2.4012  -18.4077   19.2492 C.ar    1  UNL1        0.0366
     13 C           0.5738  -17.3472   20.1026 C.3     1  UNL1        0.2525
     14 O          -0.7718  -16.8150   20.4975 O.3     1  UNL1       -0.4714
     15 C          -8.5794  -19.7819   23.0141 C.3     1  UNL1        0.1020
     16 C         -10.0113  -19.6227   23.4319 C.3     1  UNL1        0.1697
     17 O         -11.0726  -20.4855   22.8160 O.3     1  UNL1       -0.3793
     18 H         -10.6669  -21.0872   22.1724 H       1  UNL1        0.2106
     19 C         -10.3818  -18.6008   24.4655 C.3     1  UNL1        0.2358
     20 O         -10.4568  -17.1499   24.0924 O.3     1  UNL1       -0.4721
     21 C         -10.9049  -16.7512   22.7175 C.ar    1  UNL1        0.1482
     22 C         -12.3245  -16.9861   22.2937 C.ar    1  UNL1        0.0376
     23 C         -12.7725  -16.5875   20.9189 C.ar    1  UNL1        0.0032
     24 C         -11.8009  -15.9540   19.9677 C.ar    1  UNL1        0.0009
     25 C         -10.3813  -15.7191   20.3915 C.ar    1  UNL1        0.0133
     26 C          -9.9333  -16.1177   21.7664 C.ar    1  UNL1        0.1023
     27 C          -8.5137  -15.8829   22.1901 C.1     1  UNL1        0.1035
     28 N          -7.0941  -15.6480   22.6139 N.1     1  UNL1       -0.1907
@<TRIPOS>BOND
     1    13    14    1
     2    14     7    1
     3     7     8   ar
     4     8     9   ar
     5     9    10   ar
     6    10     6    1
     7     6     3    1
     8     3     4    1
     9     3     5    1
    10     3     1    1
    11     1    15    1
    12    15    16    1
    13    16    17    1
    14    16    19    1
    15    19    20    1
    16    20    21    1
    17    21    22   ar
    18    22    23   ar
    19    23    24   ar
    20    24    25   ar
    21    25    26   ar
    22    26    27    1
    23    27    28    3
    24    10    11   ar
    25    11    12   ar
    26    12     7   ar
    27    26    21   ar
    28     1     2    1
    29    17    18    1
@<TRIPOS>MOLECULE
*****
 28 29 0 0 0
SMALL
GASTEIGER

@<TRIPOS>ATOM
      1 N          -6.5129  -15.8770   23.7378 N.3     1  UNL1       -0.2972
      2 H          -7.2647  -16.5175   23.4830 H       1  UNL1        0.1233
      3 C          -5.2565  -16.6930   23.8154 C.3     1  UNL1        0.0461
      4 C          -5.7994  -17.6276   22.7754 C.3     1  UNL1        0.0161
      5 C          -4.7137  -15.7583   24.8554 C.3     1  UNL1        0.0161
      6 C          -4.0003  -17.5089   23.8929 C.3     1  UNL1        0.0408
      7 C          -1.4226  -18.0236   20.2404 C.ar    1  UNL1        0.1387
      8 C          -2.1200  -19.2089   20.8393 C.ar    1  UNL1        0.0366
      9 C          -2.9792  -19.0373   22.0568 C.ar    1  UNL1       -0.0011
     10 C          -3.1411  -17.6805   22.6754 C.ar    1  UNL1       -0.0207
     11 C          -2.4437  -16.4952   22.0765 C.ar    1  UNL1       -0.0011
     12 C          -1.5845  -16.6667   20.8590 C.ar    1  UNL1        0.0366
     13 C          -1.1025  -17.8417   17.6686 C.3     1  UNL1        0.2525
     14 O          -0.5634  -18.1952   19.0229 O.3     1  UNL1       -0.4714
     15 C          -6.9848  -15.1108   24.9378 C.3     1  UNL1        0.1020
     16 C          -8.2421  -15.5235   25.6444 C.3     1  UNL1        0.1697
     17 O          -8.5279  -15.0137   27.0258 O.3     1  UNL1       -0.3793
     18 H          -7.8051  -14.4338   27.3124 H       1  UNL1        0.2106
     19 C          -9.2134  -16.4459   24.9694 C.3     1  UNL1        0.2358
     20 O          -8.7129  -17.6495   24.2274 O.3     1  UNL1       -0.4721
     21 C          -9.5425  -18.2553   23.1343 C.ar    1  UNL1        0.1482
     22 C         -10.2533  -19.5559   23.3653 C.ar    1  UNL1        0.0376
     23 C         -11.0829  -20.1617   22.2723 C.ar    1  UNL1        0.0032
     24 C         -11.2017  -19.4670   20.9483 C.ar    1  UNL1        0.0009
     25 C         -10.4909  -18.1664   20.7172 C.ar    1  UNL1        0.0133
     26 C          -9.6613  -17.5606   21.8102 C.ar    1  UNL1        0.1023
     27 C          -8.9505  -16.2601   21.5792 C.1     1  UNL1        0.1035
     28 N          -8.2398  -14.9595   21.3481 N.1     1  UNL1       -0.1907
@<TRIPOS>BOND
     1    13    14    1
     2    14     7    1
     3     7     8   ar
     4     8     9   ar
     5     9    10   ar
     6    10     6    1
     7     6     3    1
     8     3     4    1
     9     3     5    1
    10     3     1    1
    11     1    15    1
    12    15    16    1
    13    16    17    1
    14    16    19    1
    15    19    20    1
    16    20    21    1
    17    21    22   ar
    18    22    23   ar
    19    23    24   ar
    20    24    25   ar
    21    25    26   ar
    22    26    27    1
    23    27    28    3
    24    10    11   ar
    25    11    12   ar
    26    12     7   ar
    27    26    21   ar
    28     1     2    1
    29    17    18    1
