@<TRIPOS>MOLECULE
*****
 41 44 0 0 0
SMALL
GASTEIGER

@<TRIPOS>ATOM
      1 C           4.4729   -1.5388   23.0814 C.ar    1  UNL1        0.0561
      2 C           4.2583   -1.8648   21.6331 C.ar    1  UNL1        0.0196
      3 C           4.8646   -3.1047   21.0456 C.ar    1  UNL1        0.0768
      4 N           5.6855   -4.0185   21.9064 N.ar    1  UNL1       -0.2480
      5 C           5.9002   -3.6925   23.3547 C.ar    1  UNL1        0.0812
      6 C           6.7211   -4.6063   24.2155 C.ar    1  UNL1        0.0214
      7 C           6.9357   -4.2803   25.6638 C.ar    1  UNL1        0.0312
      8 C           6.3294   -3.0404   26.2513 C.ar    1  UNL1        0.1402
      9 F           6.5441   -2.7145   27.6997 F       1  UNL1       -0.2042
     10 C           5.5085   -2.1266   25.3906 C.ar    1  UNL1        0.0313
     11 C           5.2939   -2.4526   23.9423 C.ar    1  UNL1        0.0243
     12 C           3.4373   -0.9510   20.7723 C.ar    1  UNL1        0.0013
     13 C           1.9557   -1.1566   20.6602 C.ar    1  UNL1        0.0000
     14 C           1.1347   -0.2428   19.7994 C.ar    1  UNL1        0.0000
     15 C           1.7954    0.8765   19.0507 C.ar    1  UNL1        0.0000
     16 C           3.2770    1.0821   19.1628 C.ar    1  UNL1        0.0000
     17 C           4.0980    0.1684   20.0236 C.ar    1  UNL1        0.0000
     18 N           2.5251   -0.3642   24.3371 N.am    1  UNL1       -0.2995
     19 C           3.8666   -0.2990   23.6690 C.2     1  UNL1        0.2460
     20 O           4.6016    1.0061   23.5884 O.2     1  UNL1       -0.2701
     21 H           2.0427   -1.2208   24.3900 H       1  UNL1        0.1498
     22 C           1.9188    0.8756   24.9246 C.3     1  UNL1        0.1068
     23 C           2.0775    1.1674   26.3874 C.3     1  UNL1        0.0901
     24 C           2.8217   -0.6732   28.0632 C.3     1  UNL1        0.0859
     25 N           1.7323    0.1190   27.4031 N.3     1  UNL1       -0.2949
     26 H           1.2172    0.5887   28.1477 H       1  UNL1        0.1233
     27 C           4.6499   -3.4307   19.5972 C.3     1  UNL1        0.1109
     28 C           3.3060   -3.9013   19.1256 C.3     1  UNL1        0.0278
     29 N           5.7791   -3.2860   18.6206 N.pl3   1  UNL1       -0.3142
     30 H           6.1889   -4.0864   18.2198 H       1  UNL1        0.1485
     31 C           6.2840   -1.9218   18.2546 C.ar    1  UNL1        0.1429
     32 N           5.5725   -1.1141   17.2098 N.ar    1  UNL1       -0.2084
     33 C           6.0773    0.2501   16.8437 C.ar    1  UNL1        0.2012
     34 N           7.2937    0.8067   17.5225 N.ar    1  UNL1       -0.2087
     35 C           8.0052   -0.0009   18.5672 C.ar    1  UNL1        0.1396
     36 N           9.2215    0.5558   19.2460 N.pl3   1  UNL1       -0.3420
     37 C           7.5003   -1.3652   18.9333 C.ar    1  UNL1        0.1308
     38 H           9.5529    1.4512   19.0057 H       1  UNL1        0.1437
     39 H           9.6885    0.0257   19.9317 H       1  UNL1        0.1437
     40 C           8.2118   -2.1727   19.9780 C.1     1  UNL1        0.1061
     41 N           8.9233   -2.9803   21.0228 N.1     1  UNL1       -0.1906
@<TRIPOS>BOND
     1    24    25    1
     2    25    23    1
     3    23    22    1
     4    22    18    1
     5    18    19   am
     6    19    20    2
     7    19     1    1
     8     1     2   ar
     9     2    12    1
    10    12    13   ar
    11    13    14   ar
    12    14    15   ar
    13    15    16   ar
    14    16    17   ar
    15     2     3   ar
    16     3    27    1
    17    27    28    1
    18    27    29    1
    19    29    31    1
    20    31    32   ar
    21    32    33   ar
    22    33    34   ar
    23    34    35   ar
    24    35    36    1
    25    35    37   ar
    26    37    40    1
    27    40    41    3
    28     3     4   ar
    29     4     5   ar
    30     5     6   ar
    31     6     7   ar
    32     7     8   ar
    33     8     9    1
    34     8    10   ar
    35    10    11   ar
    36    11     1   ar
    37    17    12   ar
    38    37    31   ar
    39    11     5   ar
    40    25    26    1
    41    18    21    1
    42    29    30    1
    43    36    38    1
    44    36    39    1
@<TRIPOS>MOLECULE
*****
 41 44 0 0 0
SMALL
GASTEIGER

@<TRIPOS>ATOM
      1 C           2.3794   -0.1467   22.5581 C.ar    1  UNL1        0.0561
      2 C           2.4734    0.2340   24.0059 C.ar    1  UNL1        0.0196
      3 C           3.3691   -0.5390   24.9280 C.ar    1  UNL1        0.0768
      4 N           4.1708   -1.6926   24.4023 N.ar    1  UNL1       -0.2480
      5 C           4.0768   -2.0734   22.9544 C.ar    1  UNL1        0.0812
      6 C           4.8784   -3.2270   22.4287 C.ar    1  UNL1        0.0214
      7 C           4.7844   -3.6077   20.9809 C.ar    1  UNL1        0.0312
      8 C           3.8887   -2.8347   20.0588 C.ar    1  UNL1        0.1402
      9 F           3.7947   -3.2155   18.6109 F       1  UNL1       -0.2042
     10 C           3.0870   -1.6811   20.5845 C.ar    1  UNL1        0.0313
     11 C           3.1811   -1.3004   22.0323 C.ar    1  UNL1        0.0243
     12 C           1.6718    1.3877   24.5317 C.ar    1  UNL1        0.0013
     13 C           0.2787    1.1629   25.0404 C.ar    1  UNL1        0.0000
     14 C          -0.5230    2.3165   25.5662 C.ar    1  UNL1        0.0000
     15 C           0.0684    3.6949   25.5832 C.ar    1  UNL1        0.0000
     16 C           1.4615    3.9196   25.0745 C.ar    1  UNL1        0.0000
     17 C           2.2632    2.7660   24.5487 C.ar    1  UNL1        0.0000
     18 N           1.9374    1.9432   21.0792 N.am    1  UNL1       -0.2995
     19 C           1.4837    0.6262   21.6360 C.2     1  UNL1        0.2460
     20 O           0.1344    0.0824   21.2707 O.2     1  UNL1       -0.2701
     21 H           2.8230    2.3001   21.3189 H       1  UNL1        0.1498
     22 C           1.0417    2.7161   20.1571 C.3     1  UNL1        0.1068
     23 C           0.9788    2.3616   18.7010 C.3     1  UNL1        0.0901
     24 C           2.2089    0.2137   17.9115 C.3     1  UNL1        0.0859
     25 N           0.9394    0.9223   18.2805 N.3     1  UNL1       -0.2949
     26 H           0.5251    0.4010   19.0532 H       1  UNL1        0.1233
     27 C           3.4632   -0.1583   26.3759 C.3     1  UNL1        0.1109
     28 C           4.3494    0.9763   26.7970 C.3     1  UNL1        0.0278
     29 N           2.6710   -0.9121   27.4026 N.pl3   1  UNL1       -0.3142
     30 H           2.5264   -1.8804   27.2992 H       1  UNL1        0.1485
     31 C           2.0991   -0.1906   28.5867 C.ar    1  UNL1        0.1429
     32 N           0.7731    0.5019   28.4745 N.ar    1  UNL1       -0.2084
     33 C           0.2012    1.2234   29.6586 C.ar    1  UNL1        0.2012
     34 N           0.9552    1.2525   30.9550 N.ar    1  UNL1       -0.2087
     35 C           2.2810    0.5601   31.0673 C.ar    1  UNL1        0.1396
     36 N           3.0349    0.5893   32.3638 N.pl3   1  UNL1       -0.3420
     37 C           2.8530   -0.1614   29.8831 C.ar    1  UNL1        0.1308
     38 H           2.6596    1.0629   33.1410 H       1  UNL1        0.1437
     39 H           3.9052    0.1348   32.4374 H       1  UNL1        0.1437
     40 C           4.1789   -0.8538   29.9954 C.1     1  UNL1        0.1061
     41 N           5.5047   -1.5462   30.1077 N.1     1  UNL1       -0.1906
@<TRIPOS>BOND
     1    24    25    1
     2    25    23    1
     3    23    22    1
     4    22    18    1
     5    18    19   am
     6    19    20    2
     7    19     1    1
     8     1     2   ar
     9     2    12    1
    10    12    13   ar
    11    13    14   ar
    12    14    15   ar
    13    15    16   ar
    14    16    17   ar
    15     2     3   ar
    16     3    27    1
    17    27    28    1
    18    27    29    1
    19    29    31    1
    20    31    32   ar
    21    32    33   ar
    22    33    34   ar
    23    34    35   ar
    24    35    36    1
    25    35    37   ar
    26    37    40    1
    27    40    41    3
    28     3     4   ar
    29     4     5   ar
    30     5     6   ar
    31     6     7   ar
    32     7     8   ar
    33     8     9    1
    34     8    10   ar
    35    10    11   ar
    36    11     1   ar
    37    17    12   ar
    38    37    31   ar
    39    11     5   ar
    40    25    26    1
    41    18    21    1
    42    29    30    1
    43    36    38    1
    44    36    39    1
@<TRIPOS>MOLECULE
*****
 41 44 0 0 0
SMALL
GASTEIGER

@<TRIPOS>ATOM
      1 C          -5.8944  -17.6414   22.4518 C.ar    1  UNL1        0.0561
      2 C          -7.2733  -17.9705   21.9616 C.ar    1  UNL1        0.0196
      3 C          -7.4778  -19.1080   21.0055 C.ar    1  UNL1        0.0768
      4 N          -6.3035  -19.9165   20.5396 N.ar    1  UNL1       -0.2480
      5 C          -4.9245  -19.5875   21.0297 C.ar    1  UNL1        0.0812
      6 C          -3.7501  -20.3960   20.5638 C.ar    1  UNL1        0.0214
      7 C          -2.3712  -20.0669   21.0539 C.ar    1  UNL1        0.0312
      8 C          -2.1667  -18.9293   22.0100 C.ar    1  UNL1        0.1402
      9 F          -0.7877  -18.6003   22.5001 F       1  UNL1       -0.2042
     10 C          -3.3410  -18.1209   22.4759 C.ar    1  UNL1        0.0313
     11 C          -4.7199  -18.4499   21.9858 C.ar    1  UNL1        0.0243
     12 C          -8.4478  -17.1619   22.4276 C.ar    1  UNL1        0.0013
     13 C          -8.8379  -17.1720   23.8759 C.ar    1  UNL1        0.0000
     14 C         -10.0123  -16.3635   24.3419 C.ar    1  UNL1        0.0000
     15 C         -10.7965  -15.5450   23.3595 C.ar    1  UNL1        0.0000
     16 C         -10.4063  -15.5350   21.9112 C.ar    1  UNL1        0.0000
     17 C          -9.2320  -16.3435   21.4452 C.ar    1  UNL1        0.0000
     18 N          -5.2243  -16.7752   24.8078 N.am    1  UNL1       -0.2995
     19 C          -5.6898  -16.5038   23.4078 C.2     1  UNL1        0.2460
     20 O          -5.9508  -15.0950   22.9641 O.2     1  UNL1       -0.2701
     21 H          -5.0531  -17.6999   25.0991 H       1  UNL1        0.1498
     22 C          -5.0198  -15.6376   25.7639 C.3     1  UNL1        0.1068
     23 C          -6.0321  -15.3691   26.8376 C.3     1  UNL1        0.0901
     24 C          -8.5226  -15.1242   27.5356 C.3     1  UNL1        0.0859
     25 N          -7.4652  -15.1195   26.4718 N.3     1  UNL1       -0.2949
     26 H          -7.5000  -14.2026   26.0262 H       1  UNL1        0.1233
     27 C          -8.8568  -19.4371   20.5154 C.3     1  UNL1        0.1109
     28 C          -9.2561  -19.0916   19.1114 C.3     1  UNL1        0.0278
     29 N          -9.8365  -20.1116   21.4292 N.pl3   1  UNL1       -0.3142
     30 H          -9.6970  -21.0493   21.6946 H       1  UNL1        0.1485
     31 C         -11.0288  -19.3574   21.9387 C.ar    1  UNL1        0.1429
     32 N         -11.8583  -18.5389   20.9942 N.ar    1  UNL1       -0.2084
     33 C         -13.0506  -17.7847   21.5037 C.ar    1  UNL1        0.2012
     34 N         -13.4134  -17.8488   22.9577 N.ar    1  UNL1       -0.2087
     35 C         -12.5839  -18.6672   23.9023 C.ar    1  UNL1        0.1396
     36 N         -12.9467  -18.7314   25.3563 N.pl3   1  UNL1       -0.3420
     37 C         -11.3916  -19.4215   23.3928 C.ar    1  UNL1        0.1308
     38 H         -13.7292  -18.2363   25.6907 H       1  UNL1        0.1437
     39 H         -12.4023  -19.2685   25.9763 H       1  UNL1        0.1437
     40 C         -10.5621  -20.2399   24.3373 C.1     1  UNL1        0.1061
     41 N          -9.7327  -21.0583   25.2819 N.1     1  UNL1       -0.1906
@<TRIPOS>BOND
     1    24    25    1
     2    25    23    1
     3    23    22    1
     4    22    18    1
     5    18    19   am
     6    19    20    2
     7    19     1    1
     8     1     2   ar
     9     2    12    1
    10    12    13   ar
    11    13    14   ar
    12    14    15   ar
    13    15    16   ar
    14    16    17   ar
    15     2     3   ar
    16     3    27    1
    17    27    28    1
    18    27    29    1
    19    29    31    1
    20    31    32   ar
    21    32    33   ar
    22    33    34   ar
    23    34    35   ar
    24    35    36    1
    25    35    37   ar
    26    37    40    1
    27    40    41    3
    28     3     4   ar
    29     4     5   ar
    30     5     6   ar
    31     6     7   ar
    32     7     8   ar
    33     8     9    1
    34     8    10   ar
    35    10    11   ar
    36    11     1   ar
    37    17    12   ar
    38    37    31   ar
    39    11     5   ar
    40    25    26    1
    41    18    21    1
    42    29    30    1
    43    36    38    1
    44    36    39    1
@<TRIPOS>MOLECULE
*****
 41 44 0 0 0
SMALL
GASTEIGER

@<TRIPOS>ATOM
      1 C           0.6471    1.8276   23.6067 C.ar    1  UNL1        0.0561
      2 C          -0.5031    2.6467   23.1008 C.ar    1  UNL1        0.0196
      3 C          -0.9690    2.4907   21.6835 C.ar    1  UNL1        0.0768
      4 N          -0.2846    1.5155   20.7722 N.ar    1  UNL1       -0.2480
      5 C           0.8657    0.6963   21.2781 C.ar    1  UNL1        0.0812
      6 C           1.5501   -0.2788   20.3667 C.ar    1  UNL1        0.0214
      7 C           2.7003   -1.0980   20.8727 C.ar    1  UNL1        0.0312
      8 C           3.1661   -0.9419   22.2899 C.ar    1  UNL1        0.1402
      9 F           4.3164   -1.7611   22.7958 F       1  UNL1       -0.2042
     10 C           2.4817    0.0332   23.2013 C.ar    1  UNL1        0.0313
     11 C           1.3315    0.8524   22.6954 C.ar    1  UNL1        0.0243
     12 C          -1.1876    3.6220   24.0122 C.ar    1  UNL1        0.0013
     13 C          -0.6530    5.0160   24.1564 C.ar    1  UNL1        0.0000
     14 C          -1.3373    5.9912   25.0677 C.ar    1  UNL1        0.0000
     15 C          -2.5564    5.5724   25.8348 C.ar    1  UNL1        0.0000
     16 C          -3.0910    4.1783   25.6906 C.ar    1  UNL1        0.0000
     17 C          -2.4066    3.2031   24.7793 C.ar    1  UNL1        0.0000
     18 N           0.5924    1.0655   26.0900 N.am    1  UNL1       -0.2995
     19 C           1.1129    1.9836   25.0240 C.2     1  UNL1        0.2460
     20 O           2.0992    3.0577   25.3754 O.2     1  UNL1       -0.2701
     21 H          -0.0550    0.3606   25.8594 H       1  UNL1        0.1498
     22 C           1.0582    1.2216   27.5072 C.3     1  UNL1        0.1068
     23 C           0.8332    0.1168   28.4966 C.3     1  UNL1        0.0901
     24 C          -1.6729   -0.1403   29.1314 C.3     1  UNL1        0.0859
     25 N          -0.2687    0.2287   29.5081 N.3     1  UNL1       -0.2949
     26 H          -0.0085   -0.3670   30.2941 H       1  UNL1        0.1233
     27 C          -2.1192    3.3099   21.1776 C.3     1  UNL1        0.1109
     28 C          -1.9561    4.7872   20.9750 C.3     1  UNL1        0.0278
     29 N          -3.4326    2.6518   20.8744 N.pl3   1  UNL1       -0.3142
     30 H          -3.4517    1.7575   20.4632 H       1  UNL1        0.1485
     31 C          -4.7168    3.3563   21.1976 C.ar    1  UNL1        0.1429
     32 N          -5.1286    3.5465   22.6274 N.ar    1  UNL1       -0.2084
     33 C          -6.4128    4.2510   22.9506 C.ar    1  UNL1        0.2012
     34 N          -7.2852    4.7654   21.8441 N.ar    1  UNL1       -0.2087
     35 C          -6.8734    4.5752   20.4144 C.ar    1  UNL1        0.1396
     36 N          -7.7458    5.0896   19.3079 N.pl3   1  UNL1       -0.3420
     37 C          -5.5891    3.8707   20.0911 C.ar    1  UNL1        0.1308
     38 H          -8.5886    5.5520   19.5200 H       1  UNL1        0.1437
     39 H          -7.4755    4.9647   18.3694 H       1  UNL1        0.1437
     40 C          -5.1774    3.6805   18.6613 C.1     1  UNL1        0.1061
     41 N          -4.7656    3.4903   17.2316 N.1     1  UNL1       -0.1906
@<TRIPOS>BOND
     1    24    25    1
     2    25    23    1
     3    23    22    1
     4    22    18    1
     5    18    19   am
     6    19    20    2
     7    19     1    1
     8     1     2   ar
     9     2    12    1
    10    12    13   ar
    11    13    14   ar
    12    14    15   ar
    13    15    16   ar
    14    16    17   ar
    15     2     3   ar
    16     3    27    1
    17    27    28    1
    18    27    29    1
    19    29    31    1
    20    31    32   ar
    21    32    33   ar
    22    33    34   ar
    23    34    35   ar
    24    35    36    1
    25    35    37   ar
    26    37    40    1
    27    40    41    3
    28     3     4   ar
    29     4     5   ar
    30     5     6   ar
    31     6     7   ar
    32     7     8   ar
    33     8     9    1
    34     8    10   ar
    35    10    11   ar
    36    11     1   ar
    37    17    12   ar
    38    37    31   ar
    39    11     5   ar
    40    25    26    1
    41    18    21    1
    42    29    30    1
    43    36    38    1
    44    36    39    1
@<TRIPOS>MOLECULE
*****
 41 44 0 0 0
SMALL
GASTEIGER

@<TRIPOS>ATOM
      1 C           2.0100    0.2798   21.9676 C.ar    1  UNL1        0.0561
      2 C           1.9410    0.8689   23.3454 C.ar    1  UNL1        0.0196
      3 C           2.6980    0.2314   24.4725 C.ar    1  UNL1        0.0768
      4 N           3.5242   -0.9953   24.2219 N.ar    1  UNL1       -0.2480
      5 C           3.5933   -1.5844   22.8441 C.ar    1  UNL1        0.0812
      6 C           4.4195   -2.8110   22.5935 C.ar    1  UNL1        0.0214
      7 C           4.4885   -3.4001   21.2158 C.ar    1  UNL1        0.0312
      8 C           3.7314   -2.7626   20.0887 C.ar    1  UNL1        0.1402
      9 F           3.8006   -3.3518   18.7109 F       1  UNL1       -0.2042
     10 C           2.9053   -1.5360   20.3393 C.ar    1  UNL1        0.0313
     11 C           2.8362   -0.9469   21.7170 C.ar    1  UNL1        0.0243
     12 C           1.1148    2.0956   23.5960 C.ar    1  UNL1        0.0013
     13 C          -0.3205    1.9613   24.0106 C.ar    1  UNL1        0.0000
     14 C          -1.1467    3.1878   24.2612 C.ar    1  UNL1        0.0000
     15 C          -0.5376    4.5487   24.0973 C.ar    1  UNL1        0.0000
     16 C           0.8977    4.6830   23.6828 C.ar    1  UNL1        0.0000
     17 C           1.7239    3.4564   23.4321 C.ar    1  UNL1        0.0000
     18 N           1.8673    2.0477   20.0691 N.am    1  UNL1       -0.2995
     19 C           1.2530    0.9173   20.8405 C.2     1  UNL1        0.2460
     20 O          -0.1184    0.4245   20.4848 O.2     1  UNL1       -0.2701
     21 H           2.7673    2.3711   20.3026 H       1  UNL1        0.1498
     22 C           1.1102    2.6852   18.9420 C.3     1  UNL1        0.1068
     23 C          -0.0315    3.6128   19.2354 C.3     1  UNL1        0.0901
     24 C          -2.1973    3.2990   20.6357 C.3     1  UNL1        0.0859
     25 N          -0.7211    3.5559   20.5663 N.3     1  UNL1       -0.2949
     26 H          -0.2678    2.8152   21.1013 H       1  UNL1        0.1233
     27 C           2.6289    0.8205   25.8503 C.3     1  UNL1        0.1109
     28 C           3.7139    1.7394   26.3283 C.3     1  UNL1        0.0278
     29 N           1.4749    0.4908   26.7499 N.pl3   1  UNL1       -0.3142
     30 H           0.5975    0.2673   26.3633 H       1  UNL1        0.1485
     31 C           1.6576    0.5017   28.2387 C.ar    1  UNL1        0.1429
     32 N           2.3898   -0.6207   28.9127 N.ar    1  UNL1       -0.2084
     33 C           2.5725   -0.6099   30.4015 C.ar    1  UNL1        0.2012
     34 N           2.0231    0.5234   31.2163 N.ar    1  UNL1       -0.2087
     35 C           1.2911    1.6458   30.5423 C.ar    1  UNL1        0.1396
     36 N           0.7417    2.7791   31.3571 N.pl3   1  UNL1       -0.3420
     37 C           1.1083    1.6350   29.0535 C.ar    1  UNL1        0.1308
     38 H           0.8616    2.7862   32.3343 H       1  UNL1        0.1437
     39 H           0.2612    3.5157   30.9148 H       1  UNL1        0.1437
     40 C           0.3762    2.7573   28.3795 C.1     1  UNL1        0.1061
     41 N          -0.3559    3.8797   27.7056 N.1     1  UNL1       -0.1906
@<TRIPOS>BOND
     1    24    25    1
     2    25    23    1
     3    23    22    1
     4    22    18    1
     5    18    19   am
     6    19    20    2
     7    19     1    1
     8     1     2   ar
     9     2    12    1
    10    12    13   ar
    11    13    14   ar
    12    14    15   ar
    13    15    16   ar
    14    16    17   ar
    15     2     3   ar
    16     3    27    1
    17    27    28    1
    18    27    29    1
    19    29    31    1
    20    31    32   ar
    21    32    33   ar
    22    33    34   ar
    23    34    35   ar
    24    35    36    1
    25    35    37   ar
    26    37    40    1
    27    40    41    3
    28     3     4   ar
    29     4     5   ar
    30     5     6   ar
    31     6     7   ar
    32     7     8   ar
    33     8     9    1
    34     8    10   ar
    35    10    11   ar
    36    11     1   ar
    37    17    12   ar
    38    37    31   ar
    39    11     5   ar
    40    25    26    1
    41    18    21    1
    42    29    30    1
    43    36    38    1
    44    36    39    1
@<TRIPOS>MOLECULE
*****
 41 44 0 0 0
SMALL
GASTEIGER

@<TRIPOS>ATOM
      1 C           3.7641   -0.6371   24.5914 C.ar    1  UNL1        0.0561
      2 C           4.6325   -1.1863   25.6842 C.ar    1  UNL1        0.0196
      3 C           5.5102   -2.3735   25.4195 C.ar    1  UNL1        0.0768
      4 N           5.5196   -3.0115   24.0620 N.ar    1  UNL1       -0.2480
      5 C           4.6511   -2.4624   22.9691 C.ar    1  UNL1        0.0812
      6 C           4.6605   -3.1004   21.6117 C.ar    1  UNL1        0.0214
      7 C           3.7921   -2.5512   20.5189 C.ar    1  UNL1        0.0312
      8 C           2.9144   -1.3640   20.7836 C.ar    1  UNL1        0.1402
      9 F           2.0460   -0.8148   19.6907 F       1  UNL1       -0.2042
     10 C           2.9050   -0.7259   22.1410 C.ar    1  UNL1        0.0313
     11 C           3.7734   -1.2751   23.2338 C.ar    1  UNL1        0.0243
     12 C           4.6232   -0.5482   27.0417 C.ar    1  UNL1        0.0013
     13 C           3.6678   -1.0328   28.0916 C.ar    1  UNL1        0.0000
     14 C           3.6584   -0.3948   29.4491 C.ar    1  UNL1        0.0000
     15 C           4.6045    0.7278   29.7567 C.ar    1  UNL1        0.0000
     16 C           5.5600    1.2123   28.7068 C.ar    1  UNL1        0.0000
     17 C           5.5693    0.5744   27.3493 C.ar    1  UNL1        0.0000
     18 N           1.4814    0.3507   25.3422 N.am    1  UNL1       -0.2995
     19 C           2.8864    0.5502   24.8560 C.2     1  UNL1        0.2460
     20 O           3.4136    1.9369   24.6345 O.2     1  UNL1       -0.2701
     21 H           1.1354   -0.5595   25.4876 H       1  UNL1        0.1498
     22 C           0.6037    1.5379   25.6069 C.3     1  UNL1        0.1068
     23 C          -0.2123    1.6020   26.8639 C.3     1  UNL1        0.0901
     24 C           0.0234   -0.0160   28.8828 C.3     1  UNL1        0.0859
     25 N          -0.6058    0.3373   27.5679 N.3     1  UNL1       -0.2949
     26 H          -1.6119    0.3901   27.7276 H       1  UNL1        0.1233
     27 C           6.3787   -2.9227   26.5124 C.3     1  UNL1        0.1109
     28 C           7.8117   -2.4926   26.6191 C.3     1  UNL1        0.0278
     29 N           5.8140   -3.9019   27.4984 N.pl3   1  UNL1       -0.3142
     30 H           4.8661   -3.8472   27.7587 H       1  UNL1        0.1485
     31 C           6.6936   -4.9644   28.0878 C.ar    1  UNL1        0.1429
     32 N           7.2042   -6.0795   27.2242 N.ar    1  UNL1       -0.2084
     33 C           8.0838   -7.1420   27.8136 C.ar    1  UNL1        0.2012
     34 N           8.4527   -7.0894   29.2666 N.ar    1  UNL1       -0.2087
     35 C           7.9421   -5.9744   30.1302 C.ar    1  UNL1        0.1396
     36 N           8.3110   -5.9218   31.5831 N.pl3   1  UNL1       -0.3420
     37 C           7.0625   -4.9118   29.5408 C.ar    1  UNL1        0.1308
     38 H           8.8883   -6.6191   31.9700 H       1  UNL1        0.1437
     39 H           7.9758   -5.1899   32.1499 H       1  UNL1        0.1437
     40 C           6.5518   -3.7967   30.4043 C.1     1  UNL1        0.1061
     41 N           6.0412   -2.6816   31.2679 N.1     1  UNL1       -0.1906
@<TRIPOS>BOND
     1    24    25    1
     2    25    23    1
     3    23    22    1
     4    22    18    1
     5    18    19   am
     6    19    20    2
     7    19     1    1
     8     1     2   ar
     9     2    12    1
    10    12    13   ar
    11    13    14   ar
    12    14    15   ar
    13    15    16   ar
    14    16    17   ar
    15     2     3   ar
    16     3    27    1
    17    27    28    1
    18    27    29    1
    19    29    31    1
    20    31    32   ar
    21    32    33   ar
    22    33    34   ar
    23    34    35   ar
    24    35    36    1
    25    35    37   ar
    26    37    40    1
    27    40    41    3
    28     3     4   ar
    29     4     5   ar
    30     5     6   ar
    31     6     7   ar
    32     7     8   ar
    33     8     9    1
    34     8    10   ar
    35    10    11   ar
    36    11     1   ar
    37    17    12   ar
    38    37    31   ar
    39    11     5   ar
    40    25    26    1
    41    18    21    1
    42    29    30    1
    43    36    38    1
    44    36    39    1
@<TRIPOS>MOLECULE
*****
 41 44 0 0 0
SMALL
GASTEIGER

@<TRIPOS>ATOM
      1 C           1.2455    1.6198   23.6251 C.ar    1  UNL1        0.0561
      2 C           0.5332    2.1948   22.4369 C.ar    1  UNL1        0.0196
      3 C          -0.7391    2.9663   22.6262 C.ar    1  UNL1        0.0768
      4 N          -1.2992    3.1628   24.0037 N.ar    1  UNL1       -0.2480
      5 C          -0.5869    2.5878   25.1921 C.ar    1  UNL1        0.0812
      6 C          -1.1470    2.7843   26.5696 C.ar    1  UNL1        0.0214
      7 C          -0.4347    2.2093   27.7578 C.ar    1  UNL1        0.0312
      8 C           0.8376    1.4378   27.5685 C.ar    1  UNL1        0.1402
      9 F           1.5499    0.8628   28.7569 F       1  UNL1       -0.2042
     10 C           1.3977    1.2413   26.1910 C.ar    1  UNL1        0.0313
     11 C           0.6854    1.8163   25.0028 C.ar    1  UNL1        0.0243
     12 C           1.0933    1.9983   21.0593 C.ar    1  UNL1        0.0013
     13 C           2.0653    2.9924   20.4960 C.ar    1  UNL1        0.0000
     14 C           2.6253    2.7959   19.1185 C.ar    1  UNL1        0.0000
     15 C           2.2135    1.6055   18.3042 C.ar    1  UNL1        0.0000
     16 C           1.2415    0.6114   18.8674 C.ar    1  UNL1        0.0000
     17 C           0.6815    0.8079   20.2450 C.ar    1  UNL1        0.0000
     18 N           2.4695   -0.6331   23.2053 N.am    1  UNL1       -0.2995
     19 C           2.5179    0.8483   23.4358 C.2     1  UNL1        0.2460
     20 O           3.8386    1.5582   23.4771 O.2     1  UNL1       -0.2701
     21 H           1.6026   -1.0990   23.1783 H       1  UNL1        0.1498
     22 C           3.7419   -1.4047   23.0160 C.3     1  UNL1        0.1068
     23 C           4.0496   -2.0294   21.6875 C.3     1  UNL1        0.0901
     24 C           4.8621    0.0816   20.4094 C.3     1  UNL1        0.0859
     25 N           4.0614   -1.1863   20.4470 N.3     1  UNL1       -0.2949
     26 H           4.4104   -1.7774   19.6925 H       1  UNL1        0.1233
     27 C          -1.4514    3.5414   21.4378 C.3     1  UNL1        0.1109
     28 C          -1.1431    4.9366   20.9815 C.3     1  UNL1        0.0278
     29 N          -2.4720    2.7212   20.7059 N.pl3   1  UNL1       -0.3142
     30 H          -2.3455    1.7496   20.6095 H       1  UNL1        0.1485
     31 C          -3.6852    3.3813   20.1210 C.ar    1  UNL1        0.1429
     32 N          -3.7112    3.7494   18.6670 N.ar    1  UNL1       -0.2084
     33 C          -4.9244    4.4095   18.0821 C.ar    1  UNL1        0.2012
     34 N          -6.1118    4.7015   18.9510 N.ar    1  UNL1       -0.2087
     35 C          -6.0859    4.3334   20.4048 C.ar    1  UNL1        0.1396
     36 N          -7.2732    4.6253   21.2737 N.pl3   1  UNL1       -0.3420
     37 C          -4.8726    3.6732   20.9899 C.ar    1  UNL1        0.1308
     38 H          -8.0695    5.0586   20.8898 H       1  UNL1        0.1437
     39 H          -7.2562    4.3837   22.2280 H       1  UNL1        0.1437
     40 C          -4.8466    3.3051   22.4437 C.1     1  UNL1        0.1061
     41 N          -4.8207    2.9370   23.8976 N.1     1  UNL1       -0.1906
@<TRIPOS>BOND
     1    24    25    1
     2    25    23    1
     3    23    22    1
     4    22    18    1
     5    18    19   am
     6    19    20    2
     7    19     1    1
     8     1     2   ar
     9     2    12    1
    10    12    13   ar
    11    13    14   ar
    12    14    15   ar
    13    15    16   ar
    14    16    17   ar
    15     2     3   ar
    16     3    27    1
    17    27    28    1
    18    27    29    1
    19    29    31    1
    20    31    32   ar
    21    32    33   ar
    22    33    34   ar
    23    34    35   ar
    24    35    36    1
    25    35    37   ar
    26    37    40    1
    27    40    41    3
    28     3     4   ar
    29     4     5   ar
    30     5     6   ar
    31     6     7   ar
    32     7     8   ar
    33     8     9    1
    34     8    10   ar
    35    10    11   ar
    36    11     1   ar
    37    17    12   ar
    38    37    31   ar
    39    11     5   ar
    40    25    26    1
    41    18    21    1
    42    29    30    1
    43    36    38    1
    44    36    39    1
@<TRIPOS>MOLECULE
*****
 41 44 0 0 0
SMALL
GASTEIGER

@<TRIPOS>ATOM
      1 C           6.9297   -3.9317   26.1155 C.ar    1  UNL1        0.0561
      2 C           6.5665   -3.2613   24.8238 C.ar    1  UNL1        0.0196
      3 C           6.7429   -3.9904   23.5248 C.ar    1  UNL1        0.0768
      4 N           7.2826   -5.3899   23.5176 N.ar    1  UNL1       -0.2480
      5 C           7.6458   -6.0603   24.8093 C.ar    1  UNL1        0.0812
      6 C           8.1855   -7.4598   24.8021 C.ar    1  UNL1        0.0214
      7 C           8.5488   -8.1302   26.0938 C.ar    1  UNL1        0.0312
      8 C           8.3723   -7.4011   27.3928 C.ar    1  UNL1        0.1402
      9 F           8.7356   -8.0716   28.6845 F       1  UNL1       -0.2042
     10 C           7.8327   -6.0016   27.4000 C.ar    1  UNL1        0.0313
     11 C           7.4694   -5.3312   26.1083 C.ar    1  UNL1        0.0243
     12 C           6.0268   -1.8617   24.8310 C.ar    1  UNL1        0.0013
     13 C           6.9565   -0.6984   24.6510 C.ar    1  UNL1        0.0000
     14 C           6.4169    0.7011   24.6581 C.ar    1  UNL1        0.0000
     15 C           4.9475    0.9374   24.8453 C.ar    1  UNL1        0.0000
     16 C           4.0178   -0.2259   25.0253 C.ar    1  UNL1        0.0000
     17 C           4.5574   -1.6254   25.0181 C.ar    1  UNL1        0.0000
     18 N           7.9209   -2.5058   28.0480 N.am    1  UNL1       -0.2995
     19 C           6.7533   -3.2025   27.4144 C.2     1  UNL1        0.2460
     20 O           5.4093   -3.1701   28.0798 O.2     1  UNL1       -0.2701
     21 H           8.8030   -2.5271   27.6113 H       1  UNL1        0.1498
     22 C           7.7444   -1.7767   29.3470 C.3     1  UNL1        0.1068
     23 C           7.7461   -2.5369   30.6400 C.3     1  UNL1        0.0901
     24 C           6.9564   -4.9985   30.8986 C.3     1  UNL1        0.0859
     25 N           6.6584   -3.5288   30.9283 N.3     1  UNL1       -0.2949
     26 H           6.3080   -3.3182   31.8628 H       1  UNL1        0.1233
     27 C           6.3796   -3.3199   22.2330 C.3     1  UNL1        0.1109
     28 C           7.4550   -2.9245   21.2649 C.3     1  UNL1        0.0278
     29 N           4.9411   -3.0448   21.9095 N.pl3   1  UNL1       -0.3142
     30 H           4.2303   -3.5769   22.3349 H       1  UNL1        0.1485
     31 C           4.5853   -1.9590   20.9376 C.ar    1  UNL1        0.1429
     32 N           4.4471   -0.5429   21.4127 N.ar    1  UNL1       -0.2084
     33 C           4.0913    0.5428   20.4409 C.ar    1  UNL1        0.2012
     34 N           3.8738    0.2126   18.9939 N.ar    1  UNL1       -0.2087
     35 C           4.0121   -1.2034   18.5188 C.ar    1  UNL1        0.1396
     36 N           3.7946   -1.5336   17.0719 N.pl3   1  UNL1       -0.3420
     37 C           4.3678   -2.2893   19.4907 C.ar    1  UNL1        0.1308
     38 H           3.5611   -0.8210   16.4340 H       1  UNL1        0.1437
     39 H           3.8853   -2.4630   16.7601 H       1  UNL1        0.1437
     40 C           4.5061   -3.7053   19.0156 C.1     1  UNL1        0.1061
     41 N           4.6443   -5.1213   18.5405 N.1     1  UNL1       -0.1906
@<TRIPOS>BOND
     1    24    25    1
     2    25    23    1
     3    23    22    1
     4    22    18    1
     5    18    19   am
     6    19    20    2
     7    19     1    1
     8     1     2   ar
     9     2    12    1
    10    12    13   ar
    11    13    14   ar
    12    14    15   ar
    13    15    16   ar
    14    16    17   ar
    15     2     3   ar
    16     3    27    1
    17    27    28    1
    18    27    29    1
    19    29    31    1
    20    31    32   ar
    21    32    33   ar
    22    33    34   ar
    23    34    35   ar
    24    35    36    1
    25    35    37   ar
    26    37    40    1
    27    40    41    3
    28     3     4   ar
    29     4     5   ar
    30     5     6   ar
    31     6     7   ar
    32     7     8   ar
    33     8     9    1
    34     8    10   ar
    35    10    11   ar
    36    11     1   ar
    37    17    12   ar
    38    37    31   ar
    39    11     5   ar
    40    25    26    1
    41    18    21    1
    42    29    30    1
    43    36    38    1
    44    36    39    1
@<TRIPOS>MOLECULE
*****
 41 44 0 0 0
SMALL
GASTEIGER

@<TRIPOS>ATOM
      1 C           5.2709   -1.9623   26.3619 C.ar    1  UNL1        0.0561
      2 C           5.1845   -1.5300   24.9281 C.ar    1  UNL1        0.0196
      3 C           5.8341   -2.3537   23.8560 C.ar    1  UNL1        0.0768
      4 N           6.5702   -3.6096   24.2176 N.ar    1  UNL1       -0.2480
      5 C           6.6566   -4.0420   25.6514 C.ar    1  UNL1        0.0812
      6 C           7.3926   -5.2979   26.0129 C.ar    1  UNL1        0.0214
      7 C           7.4790   -5.7302   27.4467 C.ar    1  UNL1        0.0312
      8 C           6.8293   -4.9065   28.5188 C.ar    1  UNL1        0.1402
      9 F           6.9157   -5.3389   29.9526 F       1  UNL1       -0.2042
     10 C           6.0933   -3.6506   28.1572 C.ar    1  UNL1        0.0313
     11 C           6.0069   -3.2183   26.7235 C.ar    1  UNL1        0.0243
     12 C           4.4484   -0.2740   24.5665 C.ar    1  UNL1        0.0013
     13 C           5.1933    1.0219   24.4406 C.ar    1  UNL1        0.0000
     14 C           4.4573    2.2779   24.0790 C.ar    1  UNL1        0.0000
     15 C           2.9765    2.2380   23.8432 C.ar    1  UNL1        0.0000
     16 C           2.2317    0.9421   23.9691 C.ar    1  UNL1        0.0000
     17 C           2.9677   -0.3139   24.3307 C.ar    1  UNL1        0.0000
     18 N           3.1600   -1.3077   27.7278 N.am    1  UNL1       -0.2995
     19 C           4.6212   -1.1386   27.4340 C.2     1  UNL1        0.2460
     20 O           5.4327   -0.1458   28.2123 O.2     1  UNL1       -0.2701
     21 H           2.6273   -1.9593   27.2170 H       1  UNL1        0.1498
     22 C           2.5103   -0.4841   28.8000 C.3     1  UNL1        0.1068
     23 C           1.1201    0.0431   28.6019 C.3     1  UNL1        0.0901
     24 C          -1.4113   -0.4861   28.8501 C.3     1  UNL1        0.0859
     25 N          -0.0169   -0.5206   29.4016 N.3     1  UNL1       -0.2949
     26 H           0.2053   -1.5001   29.5793 H       1  UNL1        0.1233
     27 C           5.7477   -1.9213   22.4222 C.3     1  UNL1        0.1109
     28 C           6.9316   -1.2820   21.7590 C.3     1  UNL1        0.0278
     29 N           4.4776   -2.1284   21.6516 N.pl3   1  UNL1       -0.3142
     30 H           3.8773   -2.8736   21.8831 H       1  UNL1        0.1485
     31 C           4.1220   -1.1999   20.5285 C.ar    1  UNL1        0.1429
     32 N           3.8245    0.2425   20.8133 N.ar    1  UNL1       -0.2084
     33 C           3.4689    1.1709   19.6902 C.ar    1  UNL1        0.2012
     34 N           3.4107    0.6570   18.2822 N.ar    1  UNL1       -0.2087
     35 C           3.7081   -0.7853   17.9973 C.ar    1  UNL1        0.1396
     36 N           3.6499   -1.2992   16.5893 N.pl3   1  UNL1       -0.3420
     37 C           4.0637   -1.7138   19.1205 C.ar    1  UNL1        0.1308
     38 H           3.4165   -0.6898   15.8521 H       1  UNL1        0.1437
     39 H           3.8451   -2.2459   16.4023 H       1  UNL1        0.1437
     40 C           4.3611   -3.1562   18.8356 C.1     1  UNL1        0.1061
     41 N           4.6585   -4.5985   18.5507 N.1     1  UNL1       -0.1906
@<TRIPOS>BOND
     1    24    25    1
     2    25    23    1
     3    23    22    1
     4    22    18    1
     5    18    19   am
     6    19    20    2
     7    19     1    1
     8     1     2   ar
     9     2    12    1
    10    12    13   ar
    11    13    14   ar
    12    14    15   ar
    13    15    16   ar
    14    16    17   ar
    15     2     3   ar
    16     3    27    1
    17    27    28    1
    18    27    29    1
    19    29    31    1
    20    31    32   ar
    21    32    33   ar
    22    33    34   ar
    23    34    35   ar
    24    35    36    1
    25    35    37   ar
    26    37    40    1
    27    40    41    3
    28     3     4   ar
    29     4     5   ar
    30     5     6   ar
    31     6     7   ar
    32     7     8   ar
    33     8     9    1
    34     8    10   ar
    35    10    11   ar
    36    11     1   ar
    37    17    12   ar
    38    37    31   ar
    39    11     5   ar
    40    25    26    1
    41    18    21    1
    42    29    30    1
    43    36    38    1
    44    36    39    1
