@<TRIPOS>MOLECULE
*****
 36 39 0 0 0
SMALL
GASTEIGER

@<TRIPOS>ATOM
      1 N           7.6701   -5.1970   22.9170 N.am    1  UNL1       -0.2531
      2 C           7.4698   -4.6976   24.3172 C.2     1  UNL1        0.3135
      3 O           7.0808   -3.2687   24.5554 O.2     1  UNL1       -0.2518
      4 N           7.6585   -5.6273   25.4792 N.am    1  UNL1       -0.2282
      5 C           8.0476   -7.0562   25.2410 C.3     1  UNL1        0.1015
      6 C           8.2363   -7.9858   26.4030 C.3     1  UNL1        0.0268
      7 C           8.0360   -7.4865   27.8032 C.3     1  UNL1        0.0310
      8 C           7.6469   -6.0575   28.0414 C.ar    1  UNL1        0.0098
      9 C           7.4466   -5.5582   29.4416 C.ar    1  UNL1        0.0013
     10 C           7.0576   -4.1293   29.6798 C.ar    1  UNL1        0.0643
     11 CA          6.8689   -3.1996   28.5178 C.ar    1  UNL1        0.1260
     12 N           7.0692   -3.6989   27.1176 N.ar    1  UNL1       -0.2274
     13 C           7.4582   -5.1280   26.8794 C.ar    1  UNL1        0.1345
     14 H           7.9254   -6.1349   22.7607 H       1  UNL1        0.1578
     15 C           5.9320   -3.1614   19.9869 C.ar    1  UNL1        0.1524
     16 C           6.1207   -4.0910   21.1490 C.ar    1  UNL1        0.0721
     17 C           7.4814   -4.2674   21.7551 C.ar    1  UNL1        0.1384
     18 N           8.6535   -3.5142   21.1991 N.ar    1  UNL1       -0.2281
     19 C           8.4648   -2.5846   20.0371 C.ar    1  UNL1        0.1136
     20 C           7.1040   -2.4082   19.4310 C.ar    1  UNL1        0.1215
     21 C           6.9153   -1.4786   18.2691 C.1     1  UNL1        0.1051
     22 N           6.7267   -0.5490   17.1070 N.1     1  UNL1       -0.1907
     23 O           4.5713   -2.9850   19.3808 O.3     1  UNL1       -0.4746
     24 C           3.4561   -2.4031   20.1979 C.3     1  UNL1        0.2054
     25 C           0.5354    2.4638   18.2526 C.3     1  UNL1        0.0896
     26 N           1.2656    1.2471   18.7389 N.3     1  UNL1       -0.2715
     27 C           0.6161    0.3297   19.7321 C.3     1  UNL1        0.0723
     28 C           1.3463   -0.8870   20.2185 C.3     1  UNL1        0.0211
     29 C           2.7259   -1.1864   19.7115 C.3     1  UNL1        0.0465
     30 C           3.3754   -0.2690   18.7183 C.3     1  UNL1        0.0211
     31 C           2.6452    0.9477   18.2320 C.3     1  UNL1        0.0723
     32 C           6.8573   -3.6299   31.0800 C.3     1  UNL1        0.3425
     33 F           5.5022   -3.1642   31.5235 F       1  UNL1       -0.1932
     34 F           8.0122   -3.5963   32.0367 F       1  UNL1       -0.1932
     35 C           6.4799   -1.7707   28.7560 C.2     1  UNL1        0.2530
     36 O           5.0349   -1.4049   28.9249 O.2     1  UNL1       -0.2815
@<TRIPOS>BOND
     1    25    26    1
     2    26    27    1
     3    27    28    1
     4    28    29    1
     5    29    24    1
     6    24    23    1
     7    23    15    1
     8    15    16   ar
     9    16    17   ar
    10    17     1    1
    11     1     2   am
    12     2     3    2
    13     2     4   am
    14     4     5    1
    15     5     6    1
    16     6     7    1
    17     7     8    1
    18     8     9   ar
    19     9    10   ar
    20    10    32    1
    21    32    33    1
    22    32    34    1
    23    10    11   ar
    24    11    35    1
    25    35    36    2
    26    11    12   ar
    27    12    13   ar
    28    17    18   ar
    29    18    19   ar
    30    19    20   ar
    31    20    21    1
    32    21    22    3
    33    29    30    1
    34    30    31    1
    35    31    26    1
    36    20    15   ar
    37    13     4    1
    38    13     8   ar
    39     1    14    1
@<TRIPOS>MOLECULE
*****
 36 39 0 0 0
SMALL
GASTEIGER

@<TRIPOS>ATOM
      1 N           4.2756   -1.6920   26.4860 N.am    1  UNL1       -0.2531
      2 C           3.7610   -1.1652   25.1792 C.2     1  UNL1        0.3135
      3 O           2.8683    0.0400   25.1557 O.2     1  UNL1       -0.2518
      4 N           4.1391   -1.8436   23.8959 N.am    1  UNL1       -0.2282
      5 C           5.0318   -3.0488   23.9194 C.3     1  UNL1        0.1015
      6 C           5.4098   -3.7272   22.6361 C.3     1  UNL1        0.0268
      7 C           4.8952   -3.2003   21.3293 C.3     1  UNL1        0.0310
      8 C           4.0026   -1.9951   21.3058 C.ar    1  UNL1        0.0098
      9 C           3.4880   -1.4682   19.9991 C.ar    1  UNL1        0.0013
     10 C           2.5954   -0.2630   19.9756 C.ar    1  UNL1        0.0643
     11 CA          2.2172    0.4154   21.2589 C.ar    1  UNL1        0.1260
     12 N           2.7318   -0.1115   22.5657 N.ar    1  UNL1       -0.2274
     13 C           3.6245   -1.3167   22.5891 C.ar    1  UNL1        0.1345
     14 H           4.8615   -2.4831   26.5014 H       1  UNL1        0.1578
     15 C           2.0779   -0.2460   29.4574 C.ar    1  UNL1        0.1524
     16 C           2.4559   -0.9244   28.1740 C.ar    1  UNL1        0.0721
     17 C           3.8975   -1.0137   27.7692 C.ar    1  UNL1        0.1384
     18 N           4.9611   -0.4246   28.6479 N.ar    1  UNL1       -0.2281
     19 C           4.5830    0.2538   29.9311 C.ar    1  UNL1        0.1136
     20 C           3.1414    0.3431   30.3359 C.ar    1  UNL1        0.1215
     21 C           2.7633    1.0214   31.6192 C.1     1  UNL1        0.1051
     22 N           2.3852    1.6998   32.9025 N.1     1  UNL1       -0.1907
     23 O           0.6363   -0.1567   29.8621 O.3     1  UNL1       -0.4746
     24 C          -0.1756    1.0467   29.4844 C.3     1  UNL1        0.2054
     25 C           0.8127    3.8106   24.2515 C.3     1  UNL1        0.0896
     26 N           0.5656    3.1196   25.5597 N.3     1  UNL1       -0.2715
     27 C           1.0802    3.7204   26.8342 C.3     1  UNL1        0.0723
     28 C           0.8331    3.0294   28.1424 C.3     1  UNL1        0.0211
     29 C           0.0715    1.7377   28.1762 C.3     1  UNL1        0.0465
     30 C          -0.4431    1.1369   26.9018 C.3     1  UNL1        0.0211
     31 C          -0.1960    1.8279   25.5935 C.3     1  UNL1        0.0723
     32 C           2.0808    0.2638   18.6688 C.3     1  UNL1        0.3425
     33 F           0.6129    0.5127   18.4863 F       1  UNL1       -0.1932
     34 F           3.0342    0.5418   17.5446 F       1  UNL1       -0.1932
     35 C           1.3246    1.6206   21.2354 C.2     1  UNL1        0.2530
     36 O          -0.1569    1.4601   21.4071 O.2     1  UNL1       -0.2815
@<TRIPOS>BOND
     1    25    26    1
     2    26    27    1
     3    27    28    1
     4    28    29    1
     5    29    24    1
     6    24    23    1
     7    23    15    1
     8    15    16   ar
     9    16    17   ar
    10    17     1    1
    11     1     2   am
    12     2     3    2
    13     2     4   am
    14     4     5    1
    15     5     6    1
    16     6     7    1
    17     7     8    1
    18     8     9   ar
    19     9    10   ar
    20    10    32    1
    21    32    33    1
    22    32    34    1
    23    10    11   ar
    24    11    35    1
    25    35    36    2
    26    11    12   ar
    27    12    13   ar
    28    17    18   ar
    29    18    19   ar
    30    19    20   ar
    31    20    21    1
    32    21    22    3
    33    29    30    1
    34    30    31    1
    35    31    26    1
    36    20    15   ar
    37    13     4    1
    38    13     8   ar
    39     1    14    1
@<TRIPOS>MOLECULE
*****
 36 39 0 0 0
SMALL
GASTEIGER

@<TRIPOS>ATOM
      1 N           1.5480    1.3743   21.1404 N.am    1  UNL1       -0.2531
      2 C           1.5013    1.3139   22.6385 C.2     1  UNL1        0.3135
      3 O           2.5473    0.5464   23.3912 O.2     1  UNL1       -0.2518
      4 N           0.4084    2.0212   23.3839 N.am    1  UNL1       -0.2282
      5 C          -0.6377    2.7888   22.6312 C.3     1  UNL1        0.1015
      6 C          -1.7304    3.4960   23.3766 C.3     1  UNL1        0.0268
      7 C          -1.7772    3.4356   24.8747 C.3     1  UNL1        0.0310
      8 C          -0.7311    2.6680   25.6273 C.ar    1  UNL1        0.0098
      9 C          -0.7778    2.6077   27.1254 C.ar    1  UNL1        0.0013
     10 C           0.2683    1.8401   27.8781 C.ar    1  UNL1        0.0643
     11 CA          1.3611    1.1329   27.1327 C.ar    1  UNL1        0.1260
     12 N           1.4078    1.1932   25.6346 N.ar    1  UNL1       -0.2274
     13 C           0.3617    1.9608   24.8819 C.ar    1  UNL1        0.1345
     14 H           0.8614    1.8781   20.6464 H       1  UNL1        0.1578
     15 C           3.6067   -1.5027   19.3420 C.ar    1  UNL1        0.1524
     16 C           2.5138   -0.7955   20.0874 C.ar    1  UNL1        0.0721
     17 C           2.6407    0.6671   20.3951 C.ar    1  UNL1        0.1384
     18 N           3.8605    1.4225   19.9573 N.ar    1  UNL1       -0.2281
     19 C           4.9533    0.7153   19.2119 C.ar    1  UNL1        0.1136
     20 C           4.8264   -0.7473   18.9042 C.ar    1  UNL1        0.1215
     21 C           5.9192   -1.4545   18.1588 C.1     1  UNL1        0.1051
     22 N           7.0120   -2.1617   17.4134 N.1     1  UNL1       -0.1907
     23 O           3.4798   -2.9653   19.0343 O.3     1  UNL1       -0.4746
     24 C           3.7507   -3.9827   20.1027 C.3     1  UNL1        0.2054
     25 C           8.1049   -3.0288   24.1190 C.3     1  UNL1        0.0896
     26 N           7.0163   -3.2673   23.1150 N.3     1  UNL1       -0.2715
     27 C           7.3636   -3.6920   21.7189 C.3     1  UNL1        0.0723
     28 C           6.2751   -3.9305   20.7148 C.3     1  UNL1        0.0211
     29 C           4.8392   -3.7443   21.1068 C.3     1  UNL1        0.0465
     30 C           4.4920   -3.3196   22.5028 C.3     1  UNL1        0.0211
     31 C           5.5805   -3.0811   23.5069 C.3     1  UNL1        0.0723
     32 C           0.2215    1.7798   29.3761 C.3     1  UNL1        0.3425
     33 F           1.1338    2.6484   30.1905 F       1  UNL1       -0.1932
     34 F          -0.7375    0.8508   30.0598 F       1  UNL1       -0.1932
     35 C           2.4072    0.3653   27.8853 C.2     1  UNL1        0.2530
     36 O           2.0893   -0.9931   28.4366 O.2     1  UNL1       -0.2815
@<TRIPOS>BOND
     1    25    26    1
     2    26    27    1
     3    27    28    1
     4    28    29    1
     5    29    24    1
     6    24    23    1
     7    23    15    1
     8    15    16   ar
     9    16    17   ar
    10    17     1    1
    11     1     2   am
    12     2     3    2
    13     2     4   am
    14     4     5    1
    15     5     6    1
    16     6     7    1
    17     7     8    1
    18     8     9   ar
    19     9    10   ar
    20    10    32    1
    21    32    33    1
    22    32    34    1
    23    10    11   ar
    24    11    35    1
    25    35    36    2
    26    11    12   ar
    27    12    13   ar
    28    17    18   ar
    29    18    19   ar
    30    19    20   ar
    31    20    21    1
    32    21    22    3
    33    29    30    1
    34    30    31    1
    35    31    26    1
    36    20    15   ar
    37    13     4    1
    38    13     8   ar
    39     1    14    1
@<TRIPOS>MOLECULE
*****
 36 39 0 0 0
SMALL
GASTEIGER

@<TRIPOS>ATOM
      1 N           0.6387    1.6583   23.4206 N.am    1  UNL1       -0.2531
      2 C           1.5305    0.6846   22.7089 C.2     1  UNL1        0.3135
      3 O           2.3016   -0.3366   23.4915 O.2     1  UNL1       -0.2518
      4 N           1.6512    0.7321   21.2144 N.am    1  UNL1       -0.2282
      5 C           0.8801    1.7532   20.4318 C.3     1  UNL1        0.1015
      6 C           1.0008    1.8007   18.9375 C.3     1  UNL1        0.0268
      7 C           1.8927    0.8270   18.2257 C.3     1  UNL1        0.0310
      8 C           2.6637   -0.1942   19.0084 C.ar    1  UNL1        0.0098
      9 C           3.5556   -1.1679   18.2967 C.ar    1  UNL1        0.0013
     10 C           4.3266   -2.1891   19.0793 C.ar    1  UNL1        0.0643
     11 CA          4.2059   -2.2366   20.5737 C.ar    1  UNL1        0.1260
     12 N           3.3141   -1.2629   21.2855 N.ar    1  UNL1       -0.2274
     13 C           2.5430   -0.2417   20.5027 C.ar    1  UNL1        0.1345
     14 H           0.1326    2.3285   22.9069 H       1  UNL1        0.1578
     15 C           1.5719    1.1468   27.2439 C.ar    1  UNL1        0.1524
     16 C           1.6927    1.1943   25.7495 C.ar    1  UNL1        0.0721
     17 C           0.5179    1.6108   24.9149 C.ar    1  UNL1        0.1384
     18 N          -0.7776    1.9799   25.5748 N.ar    1  UNL1       -0.2281
     19 C          -0.8984    1.9324   27.0692 C.ar    1  UNL1        0.1136
     20 C           0.2764    1.5159   27.9037 C.ar    1  UNL1        0.1215
     21 C           0.1557    1.4684   29.3981 C.1     1  UNL1        0.1051
     22 N           0.0349    1.4209   30.8925 N.1     1  UNL1       -0.1907
     23 O           2.7467    0.7303   28.0784 O.3     1  UNL1       -0.4746
     24 C           3.0559   -0.7256   28.2645 C.3     1  UNL1        0.2054
     25 C           7.8120   -3.1557   25.5306 C.3     1  UNL1        0.0896
     26 N           6.6230   -2.5482   26.2140 N.3     1  UNL1       -0.2715
     27 C           6.5836   -2.4572   27.7107 C.3     1  UNL1        0.0723
     28 C           5.3946   -1.8497   28.3942 C.3     1  UNL1        0.0211
     29 C           4.2449   -1.3331   27.5810 C.3     1  UNL1        0.0465
     30 C           4.2843   -1.4241   26.0843 C.3     1  UNL1        0.0211
     31 C           5.4733   -2.0316   25.4008 C.3     1  UNL1        0.0723
     32 C           5.2185   -3.1628   18.3676 C.3     1  UNL1        0.3425
     33 F           6.5005   -2.6912   17.7482 F       1  UNL1       -0.1932
     34 F           4.8281   -4.6082   18.2754 F       1  UNL1       -0.1932
     35 C           4.9770   -3.2578   21.3564 C.2     1  UNL1        0.2530
     36 O           4.4321   -4.6458   21.5197 O.2     1  UNL1       -0.2815
@<TRIPOS>BOND
     1    25    26    1
     2    26    27    1
     3    27    28    1
     4    28    29    1
     5    29    24    1
     6    24    23    1
     7    23    15    1
     8    15    16   ar
     9    16    17   ar
    10    17     1    1
    11     1     2   am
    12     2     3    2
    13     2     4   am
    14     4     5    1
    15     5     6    1
    16     6     7    1
    17     7     8    1
    18     8     9   ar
    19     9    10   ar
    20    10    32    1
    21    32    33    1
    22    32    34    1
    23    10    11   ar
    24    11    35    1
    25    35    36    2
    26    11    12   ar
    27    12    13   ar
    28    17    18   ar
    29    18    19   ar
    30    19    20   ar
    31    20    21    1
    32    21    22    3
    33    29    30    1
    34    30    31    1
    35    31    26    1
    36    20    15   ar
    37    13     4    1
    38    13     8   ar
    39     1    14    1
@<TRIPOS>MOLECULE
*****
 36 39 0 0 0
SMALL
GASTEIGER

@<TRIPOS>ATOM
      1 N           2.2354    0.5724   26.1140 N.am    1  UNL1       -0.2531
      2 C           2.7542   -0.2762   24.9912 C.2     1  UNL1        0.3135
      3 O           3.7272   -1.3820   25.2746 O.2     1  UNL1       -0.2518
      4 N           2.2998   -0.0190   23.5849 N.am    1  UNL1       -0.2282
      5 C           1.3268    1.0868   23.3015 C.3     1  UNL1        0.1015
      6 C           0.8725    1.3440   21.8953 C.3     1  UNL1        0.0268
      7 C           1.3913    0.4953   20.7725 C.3     1  UNL1        0.0310
      8 C           2.3643   -0.6105   21.0559 C.ar    1  UNL1        0.0098
      9 C           2.8831   -1.4591   19.9331 C.ar    1  UNL1        0.0013
     10 C           3.8562   -2.5649   20.2165 C.ar    1  UNL1        0.0643
     11 CA          4.3105   -2.8221   21.6227 C.ar    1  UNL1        0.1260
     12 N           3.7917   -1.9735   22.7456 N.ar    1  UNL1       -0.2274
     13 C           2.8186   -0.8676   22.4621 C.ar    1  UNL1        0.1345
     14 H           1.5968    1.2982   25.9280 H       1  UNL1        0.1578
     15 C           4.5432    0.4078   29.3385 C.ar    1  UNL1        0.1524
     16 C           4.0889    0.6650   27.9322 C.ar    1  UNL1        0.0721
     17 C           2.6897    0.3152   27.5202 C.ar    1  UNL1        0.1384
     18 N           1.7447   -0.2918   28.5145 N.ar    1  UNL1       -0.2281
     19 C           2.1989   -0.5490   29.9207 C.ar    1  UNL1        0.1136
     20 C           3.5982   -0.1992   30.3327 C.ar    1  UNL1        0.1215
     21 C           4.0525   -0.4563   31.7389 C.1     1  UNL1        0.1051
     22 N           4.5067   -0.7136   33.1452 N.1     1  UNL1       -0.1907
     23 O           5.9424    0.7576   29.7504 O.3     1  UNL1       -0.4746
     24 C           7.0773   -0.1608   29.4064 C.3     1  UNL1        0.2054
     25 C           7.0844   -5.8095   31.4293 C.3     1  UNL1        0.0896
     26 N           7.0827   -4.3973   30.9236 N.3     1  UNL1       -0.2715
     27 C           6.7191   -4.1122   29.4965 C.3     1  UNL1        0.0723
     28 C           6.7173   -2.7000   28.9908 C.3     1  UNL1        0.0211
     29 C           7.0791   -1.5730   29.9121 C.3     1  UNL1        0.0465
     30 C           7.4427   -1.8581   31.3392 C.3     1  UNL1        0.0211
     31 C           7.4444   -3.2703   31.8449 C.3     1  UNL1        0.0723
     32 C           4.3749   -3.4135   19.0937 C.3     1  UNL1        0.3425
     33 F           3.6747   -4.6900   18.7330 F       1  UNL1       -0.1932
     34 F           5.5940   -2.9856   18.3315 F       1  UNL1       -0.1932
     35 C           5.2835   -3.9279   21.9061 C.2     1  UNL1        0.2530
     36 O           6.7545   -3.6977   21.7235 O.2     1  UNL1       -0.2815
@<TRIPOS>BOND
     1    25    26    1
     2    26    27    1
     3    27    28    1
     4    28    29    1
     5    29    24    1
     6    24    23    1
     7    23    15    1
     8    15    16   ar
     9    16    17   ar
    10    17     1    1
    11     1     2   am
    12     2     3    2
    13     2     4   am
    14     4     5    1
    15     5     6    1
    16     6     7    1
    17     7     8    1
    18     8     9   ar
    19     9    10   ar
    20    10    32    1
    21    32    33    1
    22    32    34    1
    23    10    11   ar
    24    11    35    1
    25    35    36    2
    26    11    12   ar
    27    12    13   ar
    28    17    18   ar
    29    18    19   ar
    30    19    20   ar
    31    20    21    1
    32    21    22    3
    33    29    30    1
    34    30    31    1
    35    31    26    1
    36    20    15   ar
    37    13     4    1
    38    13     8   ar
    39     1    14    1
@<TRIPOS>MOLECULE
*****
 36 39 0 0 0
SMALL
GASTEIGER

@<TRIPOS>ATOM
      1 N           8.0785   -4.4866   25.9102 N.am    1  UNL1       -0.2531
      2 C           7.4599   -3.8672   27.1283 C.2     1  UNL1        0.3135
      3 O           6.7035   -2.5771   27.0118 O.2     1  UNL1       -0.2518
      4 N           7.5977   -4.5378   28.4630 N.am    1  UNL1       -0.2282
      5 C           8.3542   -5.8279   28.5795 C.3     1  UNL1        0.1015
      6 C           8.4920   -6.4985   29.9141 C.3     1  UNL1        0.0268
      7 C           7.8734   -5.8791   31.1322 C.3     1  UNL1        0.0310
      8 C           7.1170   -4.5890   31.0157 C.ar    1  UNL1        0.0098
      9 C           6.4984   -3.9696   32.2337 C.ar    1  UNL1        0.0013
     10 C           5.7420   -2.6796   32.1172 C.ar    1  UNL1        0.0643
     11 CA          5.6041   -2.0089   30.7825 C.ar    1  UNL1        0.1260
     12 N           6.2227   -2.6283   29.5644 N.ar    1  UNL1       -0.2274
     13 C           6.9792   -3.9184   29.6810 C.ar    1  UNL1        0.1345
     14 H           8.5749   -5.3333   25.9868 H       1  UNL1        0.1578
     15 C           6.8706   -3.7101   22.2105 C.ar    1  UNL1        0.1524
     16 C           7.0084   -4.3808   23.5452 C.ar    1  UNL1        0.0721
     17 C           7.9407   -3.8160   24.5756 C.ar    1  UNL1        0.1384
     18 N           8.7351   -2.5805   24.2714 N.ar    1  UNL1       -0.2281
     19 C           8.5973   -1.9099   22.9368 C.ar    1  UNL1        0.1136
     20 C           7.6651   -2.4747   21.9063 C.ar    1  UNL1        0.1215
     21 C           7.5272   -1.8041   20.5717 C.1     1  UNL1        0.1051
     22 N           7.3894   -1.1334   19.2371 N.1     1  UNL1       -0.1907
     23 O           5.9383   -4.2749   21.1800 O.3     1  UNL1       -0.4746
     24 C           4.4882   -3.8915   21.1901 C.3     1  UNL1        0.2054
     25 C           2.6699    1.0446   18.3041 C.3     1  UNL1        0.0896
     26 N           3.1245   -0.1895   19.0256 N.3     1  UNL1       -0.2715
     27 C           3.6326   -1.3680   18.2491 C.3     1  UNL1        0.0723
     28 C           4.0871   -2.6020   18.9706 C.3     1  UNL1        0.0211
     29 C           4.0337   -2.6575   20.4686 C.3     1  UNL1        0.0465
     30 C           3.5256   -1.4790   21.2451 C.3     1  UNL1        0.0211
     31 C           3.0710   -0.2450   20.5236 C.3     1  UNL1        0.0723
     32 C           5.1234   -2.0602   33.3352 C.3     1  UNL1        0.3425
     33 F           3.9557   -2.7236   34.0032 F       1  UNL1       -0.1932
     34 F           5.6726   -0.7772   33.8853 F       1  UNL1       -0.1932
     35 C           4.8477   -0.7189   30.6659 C.2     1  UNL1        0.2530
     36 O           3.3519   -0.7339   30.5541 O.2     1  UNL1       -0.2815
@<TRIPOS>BOND
     1    25    26    1
     2    26    27    1
     3    27    28    1
     4    28    29    1
     5    29    24    1
     6    24    23    1
     7    23    15    1
     8    15    16   ar
     9    16    17   ar
    10    17     1    1
    11     1     2   am
    12     2     3    2
    13     2     4   am
    14     4     5    1
    15     5     6    1
    16     6     7    1
    17     7     8    1
    18     8     9   ar
    19     9    10   ar
    20    10    32    1
    21    32    33    1
    22    32    34    1
    23    10    11   ar
    24    11    35    1
    25    35    36    2
    26    11    12   ar
    27    12    13   ar
    28    17    18   ar
    29    18    19   ar
    30    19    20   ar
    31    20    21    1
    32    21    22    3
    33    29    30    1
    34    30    31    1
    35    31    26    1
    36    20    15   ar
    37    13     4    1
    38    13     8   ar
    39     1    14    1
@<TRIPOS>MOLECULE
*****
 36 39 0 0 0
SMALL
GASTEIGER

@<TRIPOS>ATOM
      1 N           2.0964    0.8031   23.2510 N.am    1  UNL1       -0.2531
      2 C           0.8077    1.5388   23.4699 C.2     1  UNL1        0.3135
      3 O          -0.0421    1.9284   22.2969 O.2     1  UNL1       -0.2518
      4 N           0.3689    1.8850   24.8620 N.am    1  UNL1       -0.2282
      5 C           1.2187    1.4954   26.0350 C.3     1  UNL1        0.1015
      6 C           0.7798    1.8416   27.4269 C.3     1  UNL1        0.0268
      7 C          -0.5089    2.5773   27.6458 C.3     1  UNL1        0.0310
      8 C          -1.3587    2.9669   26.4728 C.ar    1  UNL1        0.0098
      9 C          -2.6474    3.7027   26.6917 C.ar    1  UNL1        0.0013
     10 C          -3.4972    4.0923   25.5187 C.ar    1  UNL1        0.0643
     11 CA         -3.0583    3.7461   24.1267 C.ar    1  UNL1        0.1260
     12 N          -1.7697    3.0104   23.9078 N.ar    1  UNL1       -0.2274
     13 C          -0.9198    2.6208   25.0809 C.ar    1  UNL1        0.1345
     14 H           2.6542    0.5474   24.0209 H       1  UNL1        0.1578
     15 C           2.9309   -1.3138   19.9995 C.ar    1  UNL1        0.1524
     16 C           2.4919   -0.9677   21.3915 C.ar    1  UNL1        0.0721
     17 C           2.5353    0.4569   21.8591 C.ar    1  UNL1        0.1384
     18 N           3.0175    1.5354   20.9347 N.ar    1  UNL1       -0.2281
     19 C           3.4564    1.1892   19.5428 C.ar    1  UNL1        0.1136
     20 C           3.4131   -0.2354   19.0751 C.ar    1  UNL1        0.1215
     21 C           3.8519   -0.5816   17.6832 C.1     1  UNL1        0.1051
     22 N           4.2909   -0.9277   16.2912 N.1     1  UNL1       -0.1907
     23 O           2.8875   -2.7384   19.5319 O.3     1  UNL1       -0.4746
     24 C           4.1075   -3.6034   19.6480 C.3     1  UNL1        0.2054
     25 C           7.9271   -2.8065   24.2061 C.3     1  UNL1        0.0896
     26 N           6.9722   -3.0058   23.0665 N.3     1  UNL1       -0.2715
     27 C           5.6136   -3.5889   23.3197 C.3     1  UNL1        0.0723
     28 C           4.6587   -3.7881   22.1802 C.3     1  UNL1        0.0211
     29 C           5.0624   -3.4042   20.7875 C.3     1  UNL1        0.0465
     30 C           6.4209   -2.8210   20.5344 C.3     1  UNL1        0.0211
     31 C           7.3758   -2.6218   21.6739 C.3     1  UNL1        0.0723
     32 C          -4.7859    4.8280   25.7377 C.3     1  UNL1        0.3425
     33 F          -6.0893    4.1839   25.3688 F       1  UNL1       -0.1932
     34 F          -4.7711    6.2081   26.3255 F       1  UNL1       -0.1932
     35 C          -3.9082    4.1357   22.9537 C.2     1  UNL1        0.2530
     36 O          -5.0340    3.2468   22.5150 O.2     1  UNL1       -0.2815
@<TRIPOS>BOND
     1    25    26    1
     2    26    27    1
     3    27    28    1
     4    28    29    1
     5    29    24    1
     6    24    23    1
     7    23    15    1
     8    15    16   ar
     9    16    17   ar
    10    17     1    1
    11     1     2   am
    12     2     3    2
    13     2     4   am
    14     4     5    1
    15     5     6    1
    16     6     7    1
    17     7     8    1
    18     8     9   ar
    19     9    10   ar
    20    10    32    1
    21    32    33    1
    22    32    34    1
    23    10    11   ar
    24    11    35    1
    25    35    36    2
    26    11    12   ar
    27    12    13   ar
    28    17    18   ar
    29    18    19   ar
    30    19    20   ar
    31    20    21    1
    32    21    22    3
    33    29    30    1
    34    30    31    1
    35    31    26    1
    36    20    15   ar
    37    13     4    1
    38    13     8   ar
    39     1    14    1
@<TRIPOS>MOLECULE
*****
 36 39 0 0 0
SMALL
GASTEIGER

@<TRIPOS>ATOM
      1 N           0.7421    2.2231   23.9423 N.am    1  UNL1       -0.2531
      2 C           1.5595    1.0657   23.4499 C.2     1  UNL1        0.3135
      3 O           2.4097    0.2862   24.4088 O.2     1  UNL1       -0.2518
      4 N           1.5265    0.6878   21.9986 N.am    1  UNL1       -0.2282
      5 C           0.6763    1.4673   21.0398 C.3     1  UNL1        0.1015
      6 C           0.6434    1.0895   19.5886 C.3     1  UNL1        0.0268
      7 C           1.4607   -0.0679   19.0962 C.3     1  UNL1        0.0310
      8 C           2.3109   -0.8474   20.0550 C.ar    1  UNL1        0.0098
      9 C           3.1282   -2.0048   19.5627 C.ar    1  UNL1        0.0013
     10 C           3.9785   -2.7843   20.5215 C.ar    1  UNL1        0.0643
     11 CA          4.0114   -2.4065   21.9728 C.ar    1  UNL1        0.1260
     12 N           3.1941   -1.2491   22.4652 N.ar    1  UNL1       -0.2274
     13 C           2.3438   -0.4696   21.5062 C.ar    1  UNL1        0.1345
     14 H           0.1841    2.7347   23.3130 H       1  UNL1        0.1578
     15 C           0.2339    2.0515   27.8745 C.ar    1  UNL1        0.1524
     16 C           0.2010    1.6735   26.4233 C.ar    1  UNL1        0.0721
     17 C           0.7750    2.6010   25.3935 C.ar    1  UNL1        0.1384
     18 N           1.3821    3.9063   25.8151 N.ar    1  UNL1       -0.2281
     19 C           1.4150    4.2842   27.2663 C.ar    1  UNL1        0.1136
     20 C           0.8409    3.3568   28.2960 C.ar    1  UNL1        0.1215
     21 C           0.8738    3.7347   29.7472 C.1     1  UNL1        0.1051
     22 N           0.9068    4.1126   31.1985 N.1     1  UNL1       -0.1907
     23 O          -0.3402    1.1240   28.9043 O.3     1  UNL1       -0.4746
     24 C           0.2782   -0.2243   29.1271 C.3     1  UNL1        0.2054
     25 C           6.2222   -0.7297   29.7698 C.3     1  UNL1        0.0896
     26 N           4.7362   -0.6033   29.6092 N.3     1  UNL1       -0.2715
     27 C           3.8879   -0.1923   30.7759 C.3     1  UNL1        0.0723
     28 C           2.4019   -0.0659   30.6153 C.3     1  UNL1        0.0211
     29 C           1.7642   -0.3506   29.2878 C.3     1  UNL1        0.0465
     30 C           2.6124   -0.7617   28.1210 C.3     1  UNL1        0.0211
     31 C           4.0984   -0.8880   28.2817 C.3     1  UNL1        0.0723
     32 C           4.7958   -3.9417   20.0291 C.3     1  UNL1        0.3425
     33 F           4.1181   -5.2069   19.5933 F       1  UNL1       -0.1932
     34 F           6.2909   -3.8339   19.9725 F       1  UNL1       -0.1932
     35 C           4.8616   -3.1860   22.9316 C.2     1  UNL1        0.2530
     36 O           5.0681   -2.6840   24.3300 O.2     1  UNL1       -0.2815
@<TRIPOS>BOND
     1    25    26    1
     2    26    27    1
     3    27    28    1
     4    28    29    1
     5    29    24    1
     6    24    23    1
     7    23    15    1
     8    15    16   ar
     9    16    17   ar
    10    17     1    1
    11     1     2   am
    12     2     3    2
    13     2     4   am
    14     4     5    1
    15     5     6    1
    16     6     7    1
    17     7     8    1
    18     8     9   ar
    19     9    10   ar
    20    10    32    1
    21    32    33    1
    22    32    34    1
    23    10    11   ar
    24    11    35    1
    25    35    36    2
    26    11    12   ar
    27    12    13   ar
    28    17    18   ar
    29    18    19   ar
    30    19    20   ar
    31    20    21    1
    32    21    22    3
    33    29    30    1
    34    30    31    1
    35    31    26    1
    36    20    15   ar
    37    13     4    1
    38    13     8   ar
    39     1    14    1
@<TRIPOS>MOLECULE
*****
 36 39 0 0 0
SMALL
GASTEIGER

@<TRIPOS>ATOM
      1 N           0.7534    1.8029   23.7299 N.am    1  UNL1       -0.2531
      2 C           1.5980    0.8141   22.9824 C.2     1  UNL1        0.3135
      3 O           2.3777   -0.2248   23.7325 O.2     1  UNL1       -0.2518
      4 N           1.6630    0.8643   21.4845 N.am    1  UNL1       -0.2282
      5 C           0.8833    1.9032   20.7344 C.3     1  UNL1        0.1015
      6 C           0.9483    1.9533   19.2367 C.3     1  UNL1        0.0268
      7 C           1.7930    0.9645   18.4891 C.3     1  UNL1        0.0310
      8 C           2.5727   -0.0744   19.2393 C.ar    1  UNL1        0.0098
      9 C           3.4173   -1.0632   18.4917 C.ar    1  UNL1        0.0013
     10 C           4.1970   -2.1021   19.2418 C.ar    1  UNL1        0.0643
     11 CA          4.1320   -2.1522   20.7397 C.ar    1  UNL1        0.1260
     12 N           3.2874   -1.1634   21.4872 N.ar    1  UNL1       -0.2274
     13 C           2.5077   -0.1245   20.7370 C.ar    1  UNL1        0.1345
     14 H           0.2416    2.4848   23.2375 H       1  UNL1        0.1578
     15 C           1.7760    2.2050   27.5434 C.ar    1  UNL1        0.1524
     16 C           1.8410    2.2551   26.0456 C.ar    1  UNL1        0.0721
     17 C           0.6884    1.7528   25.2276 C.ar    1  UNL1        0.1384
     18 N          -0.5293    1.2004   25.9075 N.ar    1  UNL1       -0.2281
     19 C          -0.5943    1.1502   27.4052 C.ar    1  UNL1        0.1136
     20 C           0.5583    1.6526   28.2232 C.ar    1  UNL1        0.1215
     21 C           0.4933    1.6024   29.7209 C.1     1  UNL1        0.1051
     22 N           0.4284    1.5523   31.2187 N.1     1  UNL1       -0.1907
     23 O           2.9287    2.7073   28.3614 O.3     1  UNL1       -0.4746
     24 C           4.0818    1.7989   28.6696 C.3     1  UNL1        0.2054
     25 C           4.3203   -1.0647   33.9368 C.3     1  UNL1        0.0896
     26 N           4.2607   -0.3488   32.6200 N.3     1  UNL1       -0.2715
     27 C           3.6783   -1.0340   31.4195 C.3     1  UNL1        0.0723
     28 C           3.6187   -0.3181   30.1027 C.3     1  UNL1        0.0211
     29 C           4.1414    1.0830   29.9864 C.3     1  UNL1        0.0465
     30 C           4.7238    1.7682   31.1869 C.3     1  UNL1        0.0211
     31 C           4.7835    1.0523   32.5037 C.3     1  UNL1        0.0723
     32 C           5.0417   -3.0908   18.4943 C.3     1  UNL1        0.3425
     33 F           6.3392   -2.6559   17.8802 F       1  UNL1       -0.1932
     34 F           4.5887   -4.5147   18.3609 F       1  UNL1       -0.1932
     35 C           4.9117   -3.1911   21.4898 C.2     1  UNL1        0.2530
     36 O           4.3646   -4.5803   21.6343 O.2     1  UNL1       -0.2815
@<TRIPOS>BOND
     1    25    26    1
     2    26    27    1
     3    27    28    1
     4    28    29    1
     5    29    24    1
     6    24    23    1
     7    23    15    1
     8    15    16   ar
     9    16    17   ar
    10    17     1    1
    11     1     2   am
    12     2     3    2
    13     2     4   am
    14     4     5    1
    15     5     6    1
    16     6     7    1
    17     7     8    1
    18     8     9   ar
    19     9    10   ar
    20    10    32    1
    21    32    33    1
    22    32    34    1
    23    10    11   ar
    24    11    35    1
    25    35    36    2
    26    11    12   ar
    27    12    13   ar
    28    17    18   ar
    29    18    19   ar
    30    19    20   ar
    31    20    21    1
    32    21    22    3
    33    29    30    1
    34    30    31    1
    35    31    26    1
    36    20    15   ar
    37    13     4    1
    38    13     8   ar
    39     1    14    1
