@<TRIPOS>MOLECULE
*****
 47 52 0 0 0
SMALL
GASTEIGER

@<TRIPOS>ATOM
      1 C           2.6212   -0.0136   29.9257 C.ar    1  UNL1        0.1348
      2 C           2.0467    1.3313   30.2588 C.ar    1  UNL1        0.0346
      3 C           1.7181    2.2993   29.1611 C.ar    1  UNL1        0.0065
      4 C           1.9639    1.9224   27.7302 C.ar    1  UNL1        0.0432
      5 C           2.5385    0.5774   27.3971 C.ar    1  UNL1        0.1256
      6 N           2.8671   -0.3905   28.4948 N.ar    1  UNL1       -0.2222
      7 C           1.6353    2.8904   26.6325 C.ar    1  UNL1        0.0851
      8 C           2.6221    3.7094   25.8545 C.ar    1  UNL1        0.1035
      9 N           1.8588    4.5345   24.8612 N.ar    1  UNL1       -0.2263
     10 C           0.4002    4.2254   25.0253 C.ar    1  UNL1        0.1475
     11 C          -0.8200    4.7379   24.3194 C.ar    1  UNL1        0.0332
     12 C          -2.1784    4.2343   24.7081 C.ar    1  UNL1       -0.0174
     13 C          -3.3986    4.7467   24.0022 C.3     1  UNL1        0.0312
     14 C          -2.3166    3.2181   25.8029 C.ar    1  UNL1        0.0149
     15 C          -1.0964    2.7056   26.5088 C.ar    1  UNL1        0.0811
     16 N           0.2621    3.2093   26.1200 N.ar    1  UNL1       -0.2888
     17 C           4.1109    3.7043   26.0376 C.ar    1  UNL1        0.0723
     18 C           4.9860    2.9959   25.0464 C.ar    1  UNL1        0.0078
     19 C           6.4748    2.9907   25.2296 C.ar    1  UNL1        0.0209
     20 C           7.0885    3.6941   26.4038 C.ar    1  UNL1        0.1021
     21 N           6.2133    4.4025   27.3949 N.ar    1  UNL1       -0.2101
     22 C           4.7246    4.4076   27.2117 C.ar    1  UNL1        0.2264
     23 O           3.8495    5.1161   28.2029 O.3     1  UNL1       -0.4561
     24 C           4.2220    5.1312   29.6559 C.3     1  UNL1        0.2542
     25 C           4.3466   -1.0550   31.5653 C.2     1  UNL1        0.2414
     26 O           5.4148   -0.1604   31.0095 O.2     1  UNL1       -0.2733
     27 N           2.9499   -0.9816   31.0234 N.am    1  UNL1       -0.2682
     28 H           2.2489   -1.5687   31.3882 H       1  UNL1        0.1563
     29 C           4.6753   -2.0230   32.6630 C.3     1  UNL1        0.1319
     30 C           4.2710   -1.7206   34.0756 C.3     1  UNL1        0.0270
     31 C           6.8911   -3.2677   32.1239 C.3     1  UNL1        0.0862
     32 N           5.4082   -3.2933   32.3483 N.3     1  UNL1       -0.2902
     33 H           5.2390   -3.9313   33.1259 H       1  UNL1        0.1237
     34 C           2.7844    0.2004   25.9661 C.1     1  UNL1       -0.0404
     35 C           3.0303   -0.1766   24.5353 C.1     1  UNL1       -0.0583
     36 C           3.2762   -0.5536   23.1044 C.ar    1  UNL1        0.0421
     37 C           3.9496   -1.8531   22.7763 C.ar    1  UNL1        0.0097
     38 C           4.1955   -2.2301   21.3454 C.ar    1  UNL1        0.0179
     39 C           3.7680   -1.3075   20.2427 C.ar    1  UNL1        0.0625
     40 C           3.0946   -0.0079   20.5708 C.ar    1  UNL1        0.0166
     41 C           2.6671    0.9147   19.4680 C.ar    1  UNL1        0.0063
     42 C           2.9129    0.5377   18.0372 C.ar    1  UNL1        0.0608
     43 C           3.5864   -0.7619   17.7090 C.ar    1  UNL1        0.2610
     44 O           3.8322   -1.1388   16.2781 O.2     1  UNL1       -0.2670
     45 N           4.0139   -1.6845   18.8117 N.ar    1  UNL1       -0.2935
     46 C           4.6873   -2.9840   18.4836 C.3     1  UNL1        0.1335
     47 C           2.8487    0.3690   22.0016 C.ar    1  UNL1        0.0097
@<TRIPOS>BOND
     1    31    32    1
     2    32    29    1
     3    29    30    1
     4    29    25    1
     5    25    26    2
     6    25    27   am
     7    27     1    1
     8     1     2   ar
     9     2     3   ar
    10     3     4   ar
    11     4     7    1
    12     7     8   ar
    13     8    17    1
    14    17    18   ar
    15    18    19   ar
    16    19    20   ar
    17    20    21   ar
    18    21    22   ar
    19    22    23    1
    20    23    24    1
    21     8     9   ar
    22     9    10   ar
    23    10    11   ar
    24    11    12   ar
    25    12    13    1
    26    12    14   ar
    27    14    15   ar
    28    15    16   ar
    29     4     5   ar
    30     5    34    1
    31    34    35    3
    32    35    36    1
    33    36    37   ar
    34    37    38   ar
    35    38    39   ar
    36    39    40   ar
    37    40    41   ar
    38    41    42   ar
    39    42    43   ar
    40    43    44    2
    41    43    45   ar
    42    45    46    1
    43    40    47   ar
    44     5     6   ar
    45     6     1   ar
    46    16     7   ar
    47    47    36   ar
    48    22    17   ar
    49    16    10   ar
    50    45    39   ar
    51    32    33    1
    52    27    28    1
@<TRIPOS>MOLECULE
*****
 47 52 0 0 0
SMALL
GASTEIGER

@<TRIPOS>ATOM
      1 C           3.7593   -0.9333   24.6757 C.ar    1  UNL1        0.1348
      2 C           5.0984   -1.2914   24.1023 C.ar    1  UNL1        0.0346
      3 C           5.4372   -0.9082   22.6922 C.ar    1  UNL1        0.0065
      4 C           4.4370   -0.1670   21.8555 C.ar    1  UNL1        0.0432
      5 C           3.0980    0.1910   22.4288 C.ar    1  UNL1        0.1256
      6 N           2.7592   -0.1921   23.8389 N.ar    1  UNL1       -0.2222
      7 C           4.7759    0.2161   20.4454 C.ar    1  UNL1        0.0851
      8 C           4.9137   -0.7244   19.2850 C.ar    1  UNL1        0.1035
      9 N           5.2594    0.0853   18.0706 N.ar    1  UNL1       -0.2263
     10 C           5.3352    1.5263   18.4803 C.ar    1  UNL1        0.1475
     11 C           5.6378    2.7752   17.7066 C.ar    1  UNL1        0.0332
     12 C           5.6415    4.1050   18.4006 C.ar    1  UNL1       -0.0174
     13 C           5.9441    5.3539   17.6269 C.3     1  UNL1        0.0312
     14 C           5.3427    4.1859   19.8684 C.ar    1  UNL1        0.0149
     15 C           5.0401    2.9370   20.6421 C.ar    1  UNL1        0.0811
     16 N           5.0364    1.6071   19.9480 N.ar    1  UNL1       -0.2888
     17 C           4.7368   -2.2132   19.3310 C.ar    1  UNL1        0.0723
     18 C           3.4005   -2.8197   19.0204 C.ar    1  UNL1        0.0078
     19 C           3.2236   -4.3086   19.0664 C.ar    1  UNL1        0.0209
     20 C           4.3831   -5.1909   19.4230 C.ar    1  UNL1        0.1021
     21 N           5.7193   -4.5844   19.7336 N.ar    1  UNL1       -0.2101
     22 C           5.8962   -3.0955   19.6876 C.ar    1  UNL1        0.2264
     23 O           7.2326   -2.4891   19.9982 O.3     1  UNL1       -0.4561
     24 C           8.2826   -2.4013   18.9306 C.3     1  UNL1        0.2542
     25 C           3.3006   -0.2585   27.1423 C.2     1  UNL1        0.2414
     26 O           3.5196    1.1827   26.7887 O.2     1  UNL1       -0.2733
     27 N           3.4205   -1.3165   26.0858 N.am    1  UNL1       -0.2682
     28 H           3.2768   -2.2624   26.3179 H       1  UNL1        0.1563
     29 C           2.9618   -0.6417   28.5524 C.3     1  UNL1        0.1319
     30 C           4.0357   -0.6753   29.5991 C.3     1  UNL1        0.0270
     31 C           0.4782    0.0576   28.8573 C.3     1  UNL1        0.0862
     32 N           1.5491   -0.9912   28.9158 N.3     1  UNL1       -0.2902
     33 H           1.2607   -1.7418   28.2882 H       1  UNL1        0.1237
     34 C           2.0977    0.9323   21.5921 C.1     1  UNL1       -0.0404
     35 C           1.0975    1.6735   20.7554 C.1     1  UNL1       -0.0583
     36 C           0.0972    2.4147   19.9186 C.ar    1  UNL1        0.0421
     37 C           0.4165    2.7538   18.4928 C.ar    1  UNL1        0.0097
     38 C          -0.5837    3.4950   17.6562 C.ar    1  UNL1        0.0179
     39 C          -1.9033    3.8972   18.2453 C.ar    1  UNL1        0.0625
     40 C          -2.2226    3.5581   19.6711 C.ar    1  UNL1        0.0166
     41 C          -3.5421    3.9602   20.2603 C.ar    1  UNL1        0.0063
     42 C          -4.5424    4.7014   19.4236 C.ar    1  UNL1        0.0608
     43 C          -4.2231    5.0405   17.9977 C.ar    1  UNL1        0.2610
     44 O          -5.2233    5.7817   17.1610 O.2     1  UNL1       -0.2670
     45 N          -2.9035    4.6384   17.4085 N.ar    1  UNL1       -0.2935
     46 C          -2.5842    4.9775   15.9827 C.3     1  UNL1        0.1335
     47 C          -1.2223    2.8169   20.5078 C.ar    1  UNL1        0.0097
@<TRIPOS>BOND
     1    31    32    1
     2    32    29    1
     3    29    30    1
     4    29    25    1
     5    25    26    2
     6    25    27   am
     7    27     1    1
     8     1     2   ar
     9     2     3   ar
    10     3     4   ar
    11     4     7    1
    12     7     8   ar
    13     8    17    1
    14    17    18   ar
    15    18    19   ar
    16    19    20   ar
    17    20    21   ar
    18    21    22   ar
    19    22    23    1
    20    23    24    1
    21     8     9   ar
    22     9    10   ar
    23    10    11   ar
    24    11    12   ar
    25    12    13    1
    26    12    14   ar
    27    14    15   ar
    28    15    16   ar
    29     4     5   ar
    30     5    34    1
    31    34    35    3
    32    35    36    1
    33    36    37   ar
    34    37    38   ar
    35    38    39   ar
    36    39    40   ar
    37    40    41   ar
    38    41    42   ar
    39    42    43   ar
    40    43    44    2
    41    43    45   ar
    42    45    46    1
    43    40    47   ar
    44     5     6   ar
    45     6     1   ar
    46    16     7   ar
    47    47    36   ar
    48    22    17   ar
    49    16    10   ar
    50    45    39   ar
    51    32    33    1
    52    27    28    1
@<TRIPOS>MOLECULE
*****
 47 52 0 0 0
SMALL
GASTEIGER

@<TRIPOS>ATOM
      1 C          -2.4683    4.4435   18.5500 C.ar    1  UNL1        0.1348
      2 C          -1.5607    4.3791   17.3576 C.ar    1  UNL1        0.0346
      3 C          -0.1928    3.7775   17.4877 C.ar    1  UNL1        0.0065
      4 C           0.2674    3.2402   18.8104 C.ar    1  UNL1        0.0432
      5 C          -0.6402    3.3045   20.0029 C.ar    1  UNL1        0.1256
      6 N          -2.0081    3.9062   19.8727 N.ar    1  UNL1       -0.2222
      7 C           1.6353    2.6386   18.9406 C.ar    1  UNL1        0.0851
      8 C           2.9370    3.3557   18.7372 C.ar    1  UNL1        0.1035
      9 N           4.0478    2.3745   18.9679 N.ar    1  UNL1       -0.2263
     10 C           3.4328    1.0509   19.3139 C.ar    1  UNL1        0.1475
     11 C           4.0377   -0.2819   19.6421 C.ar    1  UNL1        0.0332
     12 C           3.1516   -1.4514   19.9535 C.ar    1  UNL1       -0.0174
     13 C           3.7565   -2.7842   20.2817 C.3     1  UNL1        0.0312
     14 C           1.6606   -1.2883   19.9366 C.ar    1  UNL1        0.0149
     15 C           1.0556    0.0445   19.6083 C.ar    1  UNL1        0.0811
     16 N           1.9417    1.2141   19.2970 N.ar    1  UNL1       -0.2888
     17 C           3.0993    4.8005   18.3680 C.ar    1  UNL1        0.0723
     18 C           3.0860    5.2120   16.9255 C.ar    1  UNL1        0.0078
     19 C           3.2484    6.6568   16.5562 C.ar    1  UNL1        0.0209
     20 C           3.4239    7.6900   17.6293 C.ar    1  UNL1        0.1021
     21 N           3.4372    7.2785   19.0717 N.ar    1  UNL1       -0.2101
     22 C           3.2749    5.8337   19.4410 C.ar    1  UNL1        0.2264
     23 O           3.2881    5.4223   20.8834 O.3     1  UNL1       -0.4561
     24 C           2.0659    5.6188   21.7306 C.3     1  UNL1        0.2542
     25 C          -4.8416    4.4286   17.4931 C.2     1  UNL1        0.2414
     26 O          -4.4792    3.2103   16.6964 O.2     1  UNL1       -0.2733
     27 N          -3.8362    5.0451   18.4198 N.am    1  UNL1       -0.2682
     28 H          -4.0741    5.8447   18.9427 H       1  UNL1        0.1563
     29 C          -6.2095    5.0302   17.3629 C.3     1  UNL1        0.1319
     30 C          -6.4848    6.0419   16.2902 C.3     1  UNL1        0.0270
     31 C          -8.4262    5.5661   18.6074 C.3     1  UNL1        0.0862
     32 N          -7.3020    4.6202   18.3054 N.3     1  UNL1       -0.2902
     33 H          -7.7235    3.7759   17.9181 H       1  UNL1        0.1237
     34 C          -0.1800    2.7672   21.3256 C.1     1  UNL1       -0.0404
     35 C           0.2802    2.2299   22.6483 C.1     1  UNL1       -0.0583
     36 C           0.7404    1.6926   23.9710 C.ar    1  UNL1        0.0421
     37 C           2.1208    1.1222   24.1095 C.ar    1  UNL1        0.0097
     38 C           2.5809    0.5849   25.4322 C.ar    1  UNL1        0.0179
     39 C           1.6608    0.6181   26.6164 C.ar    1  UNL1        0.0625
     40 C           0.2804    1.1885   26.4778 C.ar    1  UNL1        0.0166
     41 C          -0.6397    1.2217   27.6620 C.ar    1  UNL1        0.0063
     42 C          -0.1796    0.6844   28.9847 C.ar    1  UNL1        0.0608
     43 C           1.2008    0.1140   29.1233 C.ar    1  UNL1        0.2610
     44 O           1.6610   -0.4233   30.4459 O.2     1  UNL1       -0.2670
     45 N           2.1210    0.0808   27.9391 N.ar    1  UNL1       -0.2935
     46 C           3.5013   -0.4897   28.0777 C.3     1  UNL1        0.1335
     47 C          -0.1797    1.7258   25.1551 C.ar    1  UNL1        0.0097
@<TRIPOS>BOND
     1    31    32    1
     2    32    29    1
     3    29    30    1
     4    29    25    1
     5    25    26    2
     6    25    27   am
     7    27     1    1
     8     1     2   ar
     9     2     3   ar
    10     3     4   ar
    11     4     7    1
    12     7     8   ar
    13     8    17    1
    14    17    18   ar
    15    18    19   ar
    16    19    20   ar
    17    20    21   ar
    18    21    22   ar
    19    22    23    1
    20    23    24    1
    21     8     9   ar
    22     9    10   ar
    23    10    11   ar
    24    11    12   ar
    25    12    13    1
    26    12    14   ar
    27    14    15   ar
    28    15    16   ar
    29     4     5   ar
    30     5    34    1
    31    34    35    3
    32    35    36    1
    33    36    37   ar
    34    37    38   ar
    35    38    39   ar
    36    39    40   ar
    37    40    41   ar
    38    41    42   ar
    39    42    43   ar
    40    43    44    2
    41    43    45   ar
    42    45    46    1
    43    40    47   ar
    44     5     6   ar
    45     6     1   ar
    46    16     7   ar
    47    47    36   ar
    48    22    17   ar
    49    16    10   ar
    50    45    39   ar
    51    32    33    1
    52    27    28    1
@<TRIPOS>MOLECULE
*****
 47 52 0 0 0
SMALL
GASTEIGER

@<TRIPOS>ATOM
      1 C          -0.2079    1.8362   20.5407 C.ar    1  UNL1        0.1348
      2 C           0.2187    1.8374   19.1027 C.ar    1  UNL1        0.0346
      3 C           1.4863    1.1463   18.6957 C.ar    1  UNL1        0.0065
      4 C           2.3273    0.4540   19.7269 C.ar    1  UNL1        0.0432
      5 C           1.9007    0.4527   21.1649 C.ar    1  UNL1        0.1256
      6 N           0.6331    1.1438   21.5718 N.ar    1  UNL1       -0.2222
      7 C           3.5949   -0.2371   19.3199 C.ar    1  UNL1        0.0851
      8 C           4.8901    0.4323   18.9674 C.ar    1  UNL1        0.1035
      9 N           5.8855   -0.6358   18.6237 N.ar    1  UNL1       -0.2263
     10 C           5.2056   -1.9655   18.7638 C.ar    1  UNL1        0.1475
     11 C           5.6926   -3.3688   18.5552 C.ar    1  UNL1        0.0332
     12 C           4.7639   -4.5257   18.7769 C.ar    1  UNL1       -0.0174
     13 C           5.2509   -5.9290   18.5683 C.3     1  UNL1        0.0312
     14 C           3.3482   -4.2793   19.2072 C.ar    1  UNL1        0.0149
     15 C           2.8612   -2.8760   19.4159 C.ar    1  UNL1        0.0811
     16 N           3.7899   -1.7191   19.1941 N.ar    1  UNL1       -0.2888
     17 C           5.1451    1.9105   18.9598 C.ar    1  UNL1        0.0723
     18 C           5.1786    2.6592   17.6603 C.ar    1  UNL1        0.0078
     19 C           5.4336    4.1373   17.6528 C.ar    1  UNL1        0.0209
     20 C           5.6551    4.8668   18.9446 C.ar    1  UNL1        0.1021
     21 N           5.6216    4.1182   20.2439 N.ar    1  UNL1       -0.2101
     22 C           5.3666    2.6400   20.2515 C.ar    1  UNL1        0.2264
     23 O           5.3331    1.8914   21.5510 O.3     1  UNL1       -0.4561
     24 C           6.5929    1.2952   22.1057 C.3     1  UNL1        0.2542
     25 C          -1.4147    3.8153   21.7140 C.2     1  UNL1        0.2414
     26 O          -0.0864    4.4123   22.0734 O.2     1  UNL1       -0.2733
     27 N          -1.4755    2.5273   20.9476 N.am    1  UNL1       -0.2682
     28 H          -2.3473    2.1355   20.7117 H       1  UNL1        0.1563
     29 C          -2.6823    4.5064   22.1209 C.3     1  UNL1        0.1319
     30 C          -2.6463    5.5900   23.1576 C.3     1  UNL1        0.0270
     31 C          -4.8980    3.1516   22.1924 C.3     1  UNL1        0.0862
     32 N          -3.9859    4.1140   21.4911 N.3     1  UNL1       -0.2902
     33 H          -4.5163    4.9741   21.3518 H       1  UNL1        0.1237
     34 C           2.7418   -0.2397   22.1961 C.1     1  UNL1       -0.0404
     35 C           3.5828   -0.9319   23.2273 C.1     1  UNL1       -0.0583
     36 C           4.4239   -1.6243   24.2585 C.ar    1  UNL1        0.0421
     37 C           4.3718   -1.1801   25.6902 C.ar    1  UNL1        0.0097
     38 C           5.2128   -1.8724   26.7213 C.ar    1  UNL1        0.0179
     39 C           6.1059   -3.0091   26.3207 C.ar    1  UNL1        0.0625
     40 C           6.1579   -3.4534   24.8890 C.ar    1  UNL1        0.0166
     41 C           7.0510   -4.5900   24.4884 C.ar    1  UNL1        0.0063
     42 C           7.8920   -5.2824   25.5195 C.ar    1  UNL1        0.0608
     43 C           7.8400   -4.8381   26.9513 C.ar    1  UNL1        0.2610
     44 O           8.6810   -5.5305   27.9825 O.2     1  UNL1       -0.2670
     45 N           6.9470   -3.7015   27.3519 N.ar    1  UNL1       -0.2935
     46 C           6.8949   -3.2572   28.7837 C.3     1  UNL1        0.1335
     47 C           5.3169   -2.7610   23.8579 C.ar    1  UNL1        0.0097
@<TRIPOS>BOND
     1    31    32    1
     2    32    29    1
     3    29    30    1
     4    29    25    1
     5    25    26    2
     6    25    27   am
     7    27     1    1
     8     1     2   ar
     9     2     3   ar
    10     3     4   ar
    11     4     7    1
    12     7     8   ar
    13     8    17    1
    14    17    18   ar
    15    18    19   ar
    16    19    20   ar
    17    20    21   ar
    18    21    22   ar
    19    22    23    1
    20    23    24    1
    21     8     9   ar
    22     9    10   ar
    23    10    11   ar
    24    11    12   ar
    25    12    13    1
    26    12    14   ar
    27    14    15   ar
    28    15    16   ar
    29     4     5   ar
    30     5    34    1
    31    34    35    3
    32    35    36    1
    33    36    37   ar
    34    37    38   ar
    35    38    39   ar
    36    39    40   ar
    37    40    41   ar
    38    41    42   ar
    39    42    43   ar
    40    43    44    2
    41    43    45   ar
    42    45    46    1
    43    40    47   ar
    44     5     6   ar
    45     6     1   ar
    46    16     7   ar
    47    47    36   ar
    48    22    17   ar
    49    16    10   ar
    50    45    39   ar
    51    32    33    1
    52    27    28    1
@<TRIPOS>MOLECULE
*****
 47 52 0 0 0
SMALL
GASTEIGER

@<TRIPOS>ATOM
      1 C           2.6849    0.4600   25.3153 C.ar    1  UNL1        0.1348
      2 C           4.1092    0.5355   24.8512 C.ar    1  UNL1        0.0346
      3 C           4.4297    1.1131   23.5045 C.ar    1  UNL1        0.0065
      4 C           3.3257    1.6153   22.6218 C.ar    1  UNL1        0.0432
      5 C           1.9013    1.5398   23.0859 C.ar    1  UNL1        0.1256
      6 N           1.5809    0.9622   24.4326 N.ar    1  UNL1       -0.2222
      7 C           3.6461    2.1929   21.2751 C.ar    1  UNL1        0.0851
      8 C           4.0342    1.4160   20.0521 C.ar    1  UNL1        0.1035
      9 N           4.2627    2.3918   18.9361 N.ar    1  UNL1       -0.2263
     10 C           4.0158    3.7719   19.4693 C.ar    1  UNL1        0.1475
     11 C           4.0887    5.1247   18.8253 C.ar    1  UNL1        0.0332
     12 C           3.7806    6.3545   19.6269 C.ar    1  UNL1       -0.0174
     13 C           3.8535    7.7072   18.9829 C.3     1  UNL1        0.0312
     14 C           3.3995    6.2316   21.0725 C.ar    1  UNL1        0.0149
     15 C           3.3266    4.8789   21.7165 C.ar    1  UNL1        0.0811
     16 N           3.6348    3.6490   20.9149 N.ar    1  UNL1       -0.2888
     17 C           4.1700   -0.0751   19.9611 C.ar    1  UNL1        0.0723
     18 C           5.5278   -0.7098   20.0231 C.ar    1  UNL1        0.0078
     19 C           5.6636   -2.2008   19.9321 C.ar    1  UNL1        0.0209
     20 C           4.4417   -3.0573   19.7791 C.ar    1  UNL1        0.1021
     21 N           3.0840   -2.4227   19.7172 N.ar    1  UNL1       -0.2101
     22 C           2.9482   -0.9316   19.8082 C.ar    1  UNL1        0.2264
     23 O           1.5904   -0.2970   19.7463 O.3     1  UNL1       -0.4561
     24 C           1.2091    0.5446   18.5646 C.3     1  UNL1        0.2542
     25 C           1.6418    0.7122   27.6813 C.2     1  UNL1        0.2414
     26 O           1.2395    2.1197   27.3540 O.2     1  UNL1       -0.2733
     27 N           2.3644   -0.1176   26.6620 N.am    1  UNL1       -0.2682
     28 H           2.6285   -1.0414   26.8768 H       1  UNL1        0.1563
     29 C           1.3213    0.1345   29.0280 C.3     1  UNL1        0.1319
     30 C           2.3215    0.2291   30.1420 C.3     1  UNL1        0.0270
     31 C          -1.2684    0.1295   28.8205 C.3     1  UNL1        0.0862
     32 N           0.0008   -0.5377   29.2609 N.3     1  UNL1       -0.2902
     33 H           0.0408   -1.4384   28.7839 H       1  UNL1        0.1237
     34 C           0.7973    2.0420   22.2033 C.1     1  UNL1       -0.0404
     35 C          -0.3067    2.5441   21.3206 C.1     1  UNL1       -0.0583
     36 C          -1.4107    3.0463   20.4380 C.ar    1  UNL1        0.0421
     37 C          -1.1026    3.5248   19.0502 C.ar    1  UNL1        0.0097
     38 C          -2.2066    4.0269   18.1676 C.ar    1  UNL1        0.0179
     39 C          -3.6187    4.0506   18.6729 C.ar    1  UNL1        0.0625
     40 C          -3.9269    3.5720   20.0606 C.ar    1  UNL1        0.0166
     41 C          -5.3391    3.5956   20.5659 C.ar    1  UNL1        0.0063
     42 C          -6.4431    4.0978   19.6833 C.ar    1  UNL1        0.0608
     43 C          -6.1349    4.5763   18.2954 C.ar    1  UNL1        0.2610
     44 O          -7.2390    5.0785   17.4129 O.2     1  UNL1       -0.2670
     45 N          -4.7228    4.5527   17.7902 N.ar    1  UNL1       -0.2935
     46 C          -4.4146    5.0313   16.4024 C.3     1  UNL1        0.1335
     47 C          -2.8229    3.0699   20.9432 C.ar    1  UNL1        0.0097
@<TRIPOS>BOND
     1    31    32    1
     2    32    29    1
     3    29    30    1
     4    29    25    1
     5    25    26    2
     6    25    27   am
     7    27     1    1
     8     1     2   ar
     9     2     3   ar
    10     3     4   ar
    11     4     7    1
    12     7     8   ar
    13     8    17    1
    14    17    18   ar
    15    18    19   ar
    16    19    20   ar
    17    20    21   ar
    18    21    22   ar
    19    22    23    1
    20    23    24    1
    21     8     9   ar
    22     9    10   ar
    23    10    11   ar
    24    11    12   ar
    25    12    13    1
    26    12    14   ar
    27    14    15   ar
    28    15    16   ar
    29     4     5   ar
    30     5    34    1
    31    34    35    3
    32    35    36    1
    33    36    37   ar
    34    37    38   ar
    35    38    39   ar
    36    39    40   ar
    37    40    41   ar
    38    41    42   ar
    39    42    43   ar
    40    43    44    2
    41    43    45   ar
    42    45    46    1
    43    40    47   ar
    44     5     6   ar
    45     6     1   ar
    46    16     7   ar
    47    47    36   ar
    48    22    17   ar
    49    16    10   ar
    50    45    39   ar
    51    32    33    1
    52    27    28    1
@<TRIPOS>MOLECULE
*****
 47 52 0 0 0
SMALL
GASTEIGER

@<TRIPOS>ATOM
      1 C           5.9228   -2.4753   25.0704 C.ar    1  UNL1        0.1348
      2 C           6.9510   -2.2685   23.9980 C.ar    1  UNL1        0.0346
      3 C           6.7189   -1.2482   22.9232 C.ar    1  UNL1        0.0065
      4 C           5.4586   -0.4348   22.9208 C.ar    1  UNL1        0.0432
      5 C           4.4305   -0.6417   23.9931 C.ar    1  UNL1        0.1256
      6 N           4.6625   -1.6619   25.0679 N.ar    1  UNL1       -0.2222
      7 C           5.2265    0.5854   21.8459 C.ar    1  UNL1        0.0851
      8 C           4.8824    0.2959   20.4150 C.ar    1  UNL1        0.1035
      9 N           4.7410    1.6059   19.6980 N.ar    1  UNL1       -0.2263
     10 C           4.9978    2.7050   20.6859 C.ar    1  UNL1        0.1475
     11 C           4.9971    4.1987   20.5482 C.ar    1  UNL1        0.0332
     12 C           5.2966    5.0616   21.7380 C.ar    1  UNL1       -0.0174
     13 C           5.2959    6.5553   21.6002 C.3     1  UNL1        0.0312
     14 C           5.5967    4.4310   23.0655 C.ar    1  UNL1        0.0149
     15 C           5.5973    2.9374   23.2032 C.ar    1  UNL1        0.0811
     16 N           5.2979    2.0743   22.0134 N.ar    1  UNL1       -0.2888
     17 C           4.7098   -1.0647   19.8075 C.ar    1  UNL1        0.0723
     18 C           5.8047   -1.6566   18.9702 C.ar    1  UNL1        0.0078
     19 C           5.6322   -3.0172   18.3627 C.ar    1  UNL1        0.0209
     20 C           4.3649   -3.7860   18.5926 C.ar    1  UNL1        0.1021
     21 N           3.2701   -3.1941   19.4299 N.ar    1  UNL1       -0.2101
     22 C           3.4426   -1.8335   20.0374 C.ar    1  UNL1        0.2264
     23 O           2.3477   -1.2418   20.8747 O.3     1  UNL1       -0.4561
     24 C           1.2171   -0.5054   20.2193 C.3     1  UNL1        0.2542
     25 C           6.7140   -4.8421   25.7930 C.2     1  UNL1        0.2414
     26 O           7.0410   -5.1685   24.3658 O.2     1  UNL1       -0.2733
     27 N           6.1549   -3.4956   26.1452 N.am    1  UNL1       -0.2682
     28 H           5.9403   -3.2813   27.0819 H       1  UNL1        0.1563
     29 C           6.9461   -5.8624   26.8678 C.3     1  UNL1        0.1319
     30 C           7.9839   -6.9288   26.6781 C.3     1  UNL1        0.0270
     31 C           6.8148   -5.5303   29.4412 C.3     1  UNL1        0.0862
     32 N           6.1404   -5.8163   28.1322 N.3     1  UNL1       -0.2902
     33 H           5.4306   -5.0953   28.0030 H       1  UNL1        0.1237
     34 C           3.1701    0.1717   23.9907 C.1     1  UNL1       -0.0404
     35 C           1.9098    0.9851   23.9883 C.1     1  UNL1       -0.0583
     36 C           0.6495    1.7986   23.9859 C.ar    1  UNL1        0.0421
     37 C           0.1345    2.3799   22.7026 C.ar    1  UNL1        0.0097
     38 C          -1.1258    3.1933   22.7002 C.ar    1  UNL1        0.0179
     39 C          -1.8711    3.4253   23.9811 C.ar    1  UNL1        0.0625
     40 C          -1.3562    2.8439   25.2644 C.ar    1  UNL1        0.0166
     41 C          -2.1015    3.0759   26.5452 C.ar    1  UNL1        0.0063
     42 C          -3.3618    3.8893   26.5429 C.ar    1  UNL1        0.0608
     43 C          -3.8768    4.4707   25.2596 C.ar    1  UNL1        0.2610
     44 O          -5.1371    5.2840   25.2572 O.2     1  UNL1       -0.2670
     45 N          -3.1315    4.2387   23.9787 N.ar    1  UNL1       -0.2935
     46 C          -3.6464    4.8201   22.6955 C.3     1  UNL1        0.1335
     47 C          -0.0959    2.0305   25.2667 C.ar    1  UNL1        0.0097
@<TRIPOS>BOND
     1    31    32    1
     2    32    29    1
     3    29    30    1
     4    29    25    1
     5    25    26    2
     6    25    27   am
     7    27     1    1
     8     1     2   ar
     9     2     3   ar
    10     3     4   ar
    11     4     7    1
    12     7     8   ar
    13     8    17    1
    14    17    18   ar
    15    18    19   ar
    16    19    20   ar
    17    20    21   ar
    18    21    22   ar
    19    22    23    1
    20    23    24    1
    21     8     9   ar
    22     9    10   ar
    23    10    11   ar
    24    11    12   ar
    25    12    13    1
    26    12    14   ar
    27    14    15   ar
    28    15    16   ar
    29     4     5   ar
    30     5    34    1
    31    34    35    3
    32    35    36    1
    33    36    37   ar
    34    37    38   ar
    35    38    39   ar
    36    39    40   ar
    37    40    41   ar
    38    41    42   ar
    39    42    43   ar
    40    43    44    2
    41    43    45   ar
    42    45    46    1
    43    40    47   ar
    44     5     6   ar
    45     6     1   ar
    46    16     7   ar
    47    47    36   ar
    48    22    17   ar
    49    16    10   ar
    50    45    39   ar
    51    32    33    1
    52    27    28    1
@<TRIPOS>MOLECULE
*****
 47 52 0 0 0
SMALL
GASTEIGER

@<TRIPOS>ATOM
      1 C           4.0368    0.0603   32.0114 C.ar    1  UNL1        0.1348
      2 C           5.3168   -0.4400   32.6125 C.ar    1  UNL1        0.0346
      3 C           6.3427   -1.1066   31.7447 C.ar    1  UNL1        0.0065
      4 C           6.0887   -1.2729   30.2758 C.ar    1  UNL1        0.0432
      5 C           4.8087   -0.7726   29.6747 C.ar    1  UNL1        0.1256
      6 N           3.7828   -0.1060   30.5425 N.ar    1  UNL1       -0.2222
      7 C           7.1146   -1.9395   29.4079 C.ar    1  UNL1        0.0851
      8 C           8.0562   -1.2487   28.4665 C.ar    1  UNL1        0.1035
      9 N           8.9026   -2.2962   27.8059 N.ar    1  UNL1       -0.2263
     10 C           8.4842   -3.6343   28.3390 C.ar    1  UNL1        0.1475
     11 C           8.9666   -5.0251   28.0509 C.ar    1  UNL1        0.0332
     12 C           8.3440   -6.1954   28.7528 C.ar    1  UNL1       -0.0174
     13 C           8.8264   -7.5861   28.4647 C.3     1  UNL1        0.0312
     14 C           7.2389   -5.9750   29.7430 C.ar    1  UNL1        0.0149
     15 C           6.7565   -4.5842   30.0311 C.ar    1  UNL1        0.0811
     16 N           7.3791   -3.4138   29.3291 N.ar    1  UNL1       -0.2888
     17 C           8.1371    0.2299   28.2276 C.ar    1  UNL1        0.0723
     18 C           8.5120    1.1517   29.3502 C.ar    1  UNL1        0.0078
     19 C           8.5929    2.6303   29.1112 C.ar    1  UNL1        0.0209
     20 C           8.2991    3.1873   27.7499 C.ar    1  UNL1        0.1021
     21 N           7.9242    2.2656   26.6274 N.ar    1  UNL1       -0.2101
     22 C           7.8433    0.7869   26.8663 C.ar    1  UNL1        0.2264
     23 O           7.4684   -0.1347   25.7437 O.3     1  UNL1       -0.4561
     24 C           7.2591    0.4121   24.3626 C.3     1  UNL1        0.2542
     25 C           3.1897    2.1593   33.2868 C.2     1  UNL1        0.2414
     26 O           4.3946    2.9252   32.8265 O.2     1  UNL1       -0.2733
     27 N           3.0109    0.7269   32.8793 N.am    1  UNL1       -0.2682
     28 H           2.2201    0.2242   33.1814 H       1  UNL1        0.1563
     29 C           2.1638    2.8259   34.1546 C.3     1  UNL1        0.1319
     30 C           1.2087    3.8180   33.5599 C.3     1  UNL1        0.0270
     31 C           3.2872    2.7296   36.4953 C.3     1  UNL1        0.0862
     32 N           2.0929    2.5004   35.6171 N.3     1  UNL1       -0.2902
     33 H           1.3307    3.0558   36.0058 H       1  UNL1        0.1237
     34 C           4.5546   -0.9388   28.2057 C.1     1  UNL1       -0.0404
     35 C           4.3005   -1.1051   26.7368 C.1     1  UNL1       -0.0583
     36 C           4.0465   -1.2713   25.2678 C.ar    1  UNL1        0.0421
     37 C           3.0817   -0.3622   24.5659 C.ar    1  UNL1        0.0097
     38 C           2.8277   -0.5285   23.0970 C.ar    1  UNL1        0.0179
     39 C           3.5384   -1.6039   22.3299 C.ar    1  UNL1        0.0625
     40 C           4.5031   -2.5131   23.0318 C.ar    1  UNL1        0.0166
     41 C           5.2138   -3.5885   22.2648 C.ar    1  UNL1        0.0063
     42 C           4.9598   -3.7548   20.7959 C.ar    1  UNL1        0.0608
     43 C           3.9950   -2.8456   20.0939 C.ar    1  UNL1        0.2610
     44 O           3.7410   -3.0119   18.6250 O.2     1  UNL1       -0.2670
     45 N           3.2843   -1.7702   20.8609 N.ar    1  UNL1       -0.2935
     46 C           2.3196   -0.8610   20.1590 C.3     1  UNL1        0.1335
     47 C           4.7572   -2.3468   24.5007 C.ar    1  UNL1        0.0097
@<TRIPOS>BOND
     1    31    32    1
     2    32    29    1
     3    29    30    1
     4    29    25    1
     5    25    26    2
     6    25    27   am
     7    27     1    1
     8     1     2   ar
     9     2     3   ar
    10     3     4   ar
    11     4     7    1
    12     7     8   ar
    13     8    17    1
    14    17    18   ar
    15    18    19   ar
    16    19    20   ar
    17    20    21   ar
    18    21    22   ar
    19    22    23    1
    20    23    24    1
    21     8     9   ar
    22     9    10   ar
    23    10    11   ar
    24    11    12   ar
    25    12    13    1
    26    12    14   ar
    27    14    15   ar
    28    15    16   ar
    29     4     5   ar
    30     5    34    1
    31    34    35    3
    32    35    36    1
    33    36    37   ar
    34    37    38   ar
    35    38    39   ar
    36    39    40   ar
    37    40    41   ar
    38    41    42   ar
    39    42    43   ar
    40    43    44    2
    41    43    45   ar
    42    45    46    1
    43    40    47   ar
    44     5     6   ar
    45     6     1   ar
    46    16     7   ar
    47    47    36   ar
    48    22    17   ar
    49    16    10   ar
    50    45    39   ar
    51    32    33    1
    52    27    28    1
@<TRIPOS>MOLECULE
*****
 47 52 0 0 0
SMALL
GASTEIGER

@<TRIPOS>ATOM
      1 C           2.5166    2.3011   33.8605 C.ar    1  UNL1        0.1348
      2 C           2.1905    3.3125   32.8018 C.ar    1  UNL1        0.0346
      3 C           2.6682    3.1062   31.3950 C.ar    1  UNL1        0.0065
      4 C           3.4720    1.8886   31.0468 C.ar    1  UNL1        0.0432
      5 C           3.7981    0.8773   32.1054 C.ar    1  UNL1        0.1256
      6 N           3.3204    1.0835   33.5123 N.ar    1  UNL1       -0.2222
      7 C           3.9497    1.6824   29.6399 C.ar    1  UNL1        0.0851
      8 C           3.0952    1.3125   28.4639 C.ar    1  UNL1        0.1035
      9 N           3.9832    1.2113   27.2592 N.ar    1  UNL1       -0.2263
     10 C           5.3865    1.5187   27.6907 C.ar    1  UNL1        0.1475
     11 C           6.6805    1.5711   26.9339 C.ar    1  UNL1        0.0332
     12 C           7.9539    1.9146   27.6484 C.ar    1  UNL1       -0.0174
     13 C           9.2479    1.9670   26.8916 C.3     1  UNL1        0.0312
     14 C           7.9333    2.2058   29.1198 C.ar    1  UNL1        0.0149
     15 C           6.6392    2.1534   29.8766 C.ar    1  UNL1        0.0811
     16 N           5.3658    1.8098   29.1620 N.ar    1  UNL1       -0.2888
     17 C           1.6129    1.0839   28.4883 C.ar    1  UNL1        0.0723
     18 C           1.0585   -0.1799   29.0764 C.ar    1  UNL1        0.0078
     19 C          -0.4238   -0.4085   29.1008 C.ar    1  UNL1        0.0209
     20 C          -1.3517    0.6266   28.5371 C.ar    1  UNL1        0.1021
     21 N          -0.7972    1.8902   27.9490 N.ar    1  UNL1       -0.2101
     22 C           0.6850    2.1188   27.9247 C.ar    1  UNL1        0.2264
     23 O           1.2394    3.3825   27.3365 O.3     1  UNL1       -0.4561
     24 C           1.3104    4.6287   28.1684 C.3     1  UNL1        0.2542
     25 C           3.0297    2.7383   36.3696 C.2     1  UNL1        0.2414
     26 O           4.4983    2.7631   36.0650 O.2     1  UNL1       -0.2733
     27 N           2.0389    2.5074   35.2673 N.am    1  UNL1       -0.2682
     28 H           1.0750    2.4912   35.4673 H       1  UNL1        0.1563
     29 C           2.5520    2.9446   37.7764 C.3     1  UNL1        0.1319
     30 C           3.5249    3.3353   38.8492 C.3     1  UNL1        0.0270
     31 C           0.7055    1.9735   39.3248 C.3     1  UNL1        0.0862
     32 N           1.1014    2.7601   38.1106 N.3     1  UNL1       -0.2902
     33 H           0.7039    3.6929   38.2216 H       1  UNL1        0.1237
     34 C           4.6020   -0.3404   31.7573 C.1     1  UNL1       -0.0404
     35 C           5.4059   -1.5579   31.4091 C.1     1  UNL1       -0.0583
     36 C           6.2097   -2.7756   31.0609 C.ar    1  UNL1        0.0421
     37 C           7.1243   -3.3872   32.0804 C.ar    1  UNL1        0.0097
     38 C           7.9282   -4.6048   31.7322 C.ar    1  UNL1        0.0179
     39 C           7.8174   -5.2108   30.3645 C.ar    1  UNL1        0.0625
     40 C           6.9028   -4.5992   29.3450 C.ar    1  UNL1        0.0166
     41 C           6.7920   -5.2051   27.9773 C.ar    1  UNL1        0.0063
     42 C           7.5958   -6.4227   27.6291 C.ar    1  UNL1        0.0608
     43 C           8.5105   -7.0344   28.6486 C.ar    1  UNL1        0.2610
     44 O           9.3143   -8.2520   28.3004 O.2     1  UNL1       -0.2670
     45 N           8.6213   -6.4285   30.0163 N.ar    1  UNL1       -0.2935
     46 C           9.5358   -7.0401   31.0358 C.3     1  UNL1        0.1335
     47 C           6.0990   -3.3816   29.6932 C.ar    1  UNL1        0.0097
@<TRIPOS>BOND
     1    31    32    1
     2    32    29    1
     3    29    30    1
     4    29    25    1
     5    25    26    2
     6    25    27   am
     7    27     1    1
     8     1     2   ar
     9     2     3   ar
    10     3     4   ar
    11     4     7    1
    12     7     8   ar
    13     8    17    1
    14    17    18   ar
    15    18    19   ar
    16    19    20   ar
    17    20    21   ar
    18    21    22   ar
    19    22    23    1
    20    23    24    1
    21     8     9   ar
    22     9    10   ar
    23    10    11   ar
    24    11    12   ar
    25    12    13    1
    26    12    14   ar
    27    14    15   ar
    28    15    16   ar
    29     4     5   ar
    30     5    34    1
    31    34    35    3
    32    35    36    1
    33    36    37   ar
    34    37    38   ar
    35    38    39   ar
    36    39    40   ar
    37    40    41   ar
    38    41    42   ar
    39    42    43   ar
    40    43    44    2
    41    43    45   ar
    42    45    46    1
    43    40    47   ar
    44     5     6   ar
    45     6     1   ar
    46    16     7   ar
    47    47    36   ar
    48    22    17   ar
    49    16    10   ar
    50    45    39   ar
    51    32    33    1
    52    27    28    1
@<TRIPOS>MOLECULE
*****
 47 52 0 0 0
SMALL
GASTEIGER

@<TRIPOS>ATOM
      1 C           0.6460    1.2646   20.8343 C.ar    1  UNL1        0.1348
      2 C           1.7042    1.2724   19.7713 C.ar    1  UNL1        0.0346
      3 C           3.1277    0.9617   20.1278 C.ar    1  UNL1        0.0065
      4 C           3.4930    0.6433   21.5474 C.ar    1  UNL1        0.0432
      5 C           2.4347    0.6355   22.6104 C.ar    1  UNL1        0.1256
      6 N           1.0112    0.9461   22.2538 N.ar    1  UNL1       -0.2222
      7 C           4.9165    0.3326   21.9039 C.ar    1  UNL1        0.0851
      8 C           5.6222   -0.9687   21.6620 C.ar    1  UNL1        0.1035
      9 N           7.0261   -0.8368   22.1735 N.ar    1  UNL1       -0.2263
     10 C           7.1881    0.5460   22.7316 C.ar    1  UNL1        0.1475
     11 C           8.3543    1.2405   23.3701 C.ar    1  UNL1        0.0332
     12 C           8.2167    2.6577   23.8418 C.ar    1  UNL1       -0.0174
     13 C           9.3830    3.3521   24.4803 C.3     1  UNL1        0.0312
     14 C           6.9130    3.3805   23.6752 C.ar    1  UNL1        0.0149
     15 C           5.7467    2.6860   23.0368 C.ar    1  UNL1        0.0811
     16 N           5.8843    1.2688   22.5650 N.ar    1  UNL1       -0.2888
     17 C           5.0283   -2.1879   21.0210 C.ar    1  UNL1        0.0723
     18 C           4.7768   -2.2108   19.5423 C.ar    1  UNL1        0.0078
     19 C           4.1829   -3.4300   18.9013 C.ar    1  UNL1        0.0209
     20 C           3.8404   -4.6262   19.7389 C.ar    1  UNL1        0.1021
     21 N           4.0918   -4.6033   21.2175 N.ar    1  UNL1       -0.2101
     22 C           4.6857   -3.3841   21.8585 C.ar    1  UNL1        0.2264
     23 O           4.9371   -3.3613   23.3372 O.3     1  UNL1       -0.4561
     24 C           6.2266   -3.8953   23.8869 C.3     1  UNL1        0.2542
     25 C          -1.2387    3.0007   20.4057 C.2     1  UNL1        0.2414
     26 O          -0.2764    4.1156   20.6902 O.2     1  UNL1       -0.2733
     27 N          -0.7776    1.5752   20.4778 N.am    1  UNL1       -0.2682
     28 H          -1.4092    0.8435   20.2910 H       1  UNL1        0.1563
     29 C          -2.6622    3.3113   20.0492 C.3     1  UNL1        0.1319
     30 C          -2.9648    4.2372   18.9084 C.3     1  UNL1        0.0270
     31 C          -5.1484    3.3170   20.8035 C.3     1  UNL1        0.0862
     32 N          -3.7832    2.6962   20.8334 N.3     1  UNL1       -0.2902
     33 H          -3.8875    1.7390   20.4966 H       1  UNL1        0.1237
     34 C           2.8000    0.3170   24.0300 C.1     1  UNL1       -0.0404
     35 C           3.1651   -0.0015   25.4495 C.1     1  UNL1       -0.0583
     36 C           3.5304   -0.3200   26.8692 C.ar    1  UNL1        0.0421
     37 C           2.7362    0.2678   27.9978 C.ar    1  UNL1        0.0097
     38 C           3.1015   -0.0507   29.4173 C.ar    1  UNL1        0.0179
     39 C           4.2609   -0.9569   29.7082 C.ar    1  UNL1        0.0625
     40 C           5.0550   -1.5447   28.5796 C.ar    1  UNL1        0.0166
     41 C           6.2144   -2.4509   28.8705 C.ar    1  UNL1        0.0063
     42 C           6.5796   -2.7694   30.2900 C.ar    1  UNL1        0.0608
     43 C           5.7855   -2.1816   31.4187 C.ar    1  UNL1        0.2610
     44 O           6.1507   -2.5001   32.8383 O.2     1  UNL1       -0.2670
     45 N           4.6261   -1.2754   31.1279 N.ar    1  UNL1       -0.2935
     46 C           3.8320   -0.6877   32.2565 C.3     1  UNL1        0.1335
     47 C           4.6897   -1.2262   27.1601 C.ar    1  UNL1        0.0097
@<TRIPOS>BOND
     1    31    32    1
     2    32    29    1
     3    29    30    1
     4    29    25    1
     5    25    26    2
     6    25    27   am
     7    27     1    1
     8     1     2   ar
     9     2     3   ar
    10     3     4   ar
    11     4     7    1
    12     7     8   ar
    13     8    17    1
    14    17    18   ar
    15    18    19   ar
    16    19    20   ar
    17    20    21   ar
    18    21    22   ar
    19    22    23    1
    20    23    24    1
    21     8     9   ar
    22     9    10   ar
    23    10    11   ar
    24    11    12   ar
    25    12    13    1
    26    12    14   ar
    27    14    15   ar
    28    15    16   ar
    29     4     5   ar
    30     5    34    1
    31    34    35    3
    32    35    36    1
    33    36    37   ar
    34    37    38   ar
    35    38    39   ar
    36    39    40   ar
    37    40    41   ar
    38    41    42   ar
    39    42    43   ar
    40    43    44    2
    41    43    45   ar
    42    45    46    1
    43    40    47   ar
    44     5     6   ar
    45     6     1   ar
    46    16     7   ar
    47    47    36   ar
    48    22    17   ar
    49    16    10   ar
    50    45    39   ar
    51    32    33    1
    52    27    28    1
