@<TRIPOS>MOLECULE
*****
 22 24 0 0 0
SMALL
GASTEIGER

@<TRIPOS>ATOM
      1 C          -8.6374  -17.0857   22.5285 C.2     1  UNL1       -0.0247
      2 C          -8.0251  -18.4088   22.1756 C.2     1  UNL1       -0.0421
      3 C          -9.1287  -19.3318   21.7514 C.3     1  UNL1        0.0480
      4 C         -10.4230  -18.5792   21.8420 C.ar    1  UNL1       -0.0184
      5 C         -11.8389  -18.9786   21.5493 C.ar    1  UNL1       -0.0040
      6 C         -12.9511  -17.9898   21.7368 C.ar    1  UNL1       -0.0003
      7 C         -12.6475  -16.6016   22.2171 C.ar    1  UNL1       -0.0000
      8 C         -11.2316  -16.2022   22.5098 C.ar    1  UNL1       -0.0006
      9 C         -10.1194  -17.1910   22.3223 C.ar    1  UNL1       -0.0079
     10 C          -7.5355  -14.7854   22.0337 C.3     1  UNL1        0.0110
     11 C          -7.8975  -15.8706   23.0040 C.3     1  UNL1        0.0619
     12 C          -7.5197  -15.7405   24.4498 C.ar    1  UNL1        0.0627
     13 C          -8.5605  -15.9159   25.5157 C.ar    1  UNL1        0.0151
     14 C          -8.1828  -15.7858   26.9615 C.ar    1  UNL1        0.0028
     15 C          -6.7642  -15.4804   27.3414 C.ar    1  UNL1        0.0207
     16 C          -5.7234  -15.3050   26.2756 C.ar    1  UNL1        0.0985
     17 N          -6.1012  -15.4351   24.8298 N.ar    1  UNL1       -0.2478
     18 C          -6.5654  -18.7491   22.2364 C.3     1  UNL1        0.0394
     19 C          -5.8432  -19.1787   20.9940 C.3     1  UNL1        0.0765
     20 N          -4.3853  -18.8670   20.8281 N.3     1  UNL1       -0.2700
     21 C          -3.5238  -18.6445   22.0358 C.3     1  UNL1        0.0897
     22 C          -3.7889  -18.7777   19.4547 C.3     1  UNL1        0.0897
@<TRIPOS>BOND
     1    11    10    1
     2    11     1    1
     3     1     2    2
     4     2    18    1
     5    18    19    1
     6    19    20    1
     7    20    21    1
     8    20    22    1
     9     2     3    1
    10     3     4    1
    11     4     5   ar
    12     5     6   ar
    13     6     7   ar
    14     7     8   ar
    15     8     9   ar
    16    11    12    1
    17    12    13   ar
    18    13    14   ar
    19    14    15   ar
    20    15    16   ar
    21    16    17   ar
    22     9     1    1
    23    17    12   ar
    24     9     4   ar
@<TRIPOS>MOLECULE
*****
 22 24 0 0 0
SMALL
GASTEIGER

@<TRIPOS>ATOM
      1 C          -7.9617  -19.2351   21.6627 C.2     1  UNL1       -0.0247
      2 C          -8.6022  -19.5731   20.3492 C.2     1  UNL1       -0.0421
      3 C          -7.5175  -19.9769   19.3950 C.3     1  UNL1        0.0480
      4 C          -6.2067  -19.8885   20.1189 C.ar    1  UNL1       -0.0184
      5 C          -4.7987  -20.1663   19.6828 C.ar    1  UNL1       -0.0040
      6 C          -3.6651  -19.9855   20.6484 C.ar    1  UNL1       -0.0003
      7 C          -3.9396  -19.5270   22.0500 C.ar    1  UNL1       -0.0000
      8 C          -5.3477  -19.2493   22.4860 C.ar    1  UNL1       -0.0006
      9 C          -6.4813  -19.4300   21.5204 C.ar    1  UNL1       -0.0079
     10 C          -9.6668  -19.6882   23.5700 C.3     1  UNL1        0.0110
     11 C          -8.6762  -18.7817   22.9013 C.3     1  UNL1        0.0619
     12 C          -8.4003  -17.4220   23.4711 C.ar    1  UNL1        0.0627
     13 C          -9.0219  -17.0145   24.7741 C.ar    1  UNL1        0.0151
     14 C          -8.7460  -15.6547   25.3440 C.ar    1  UNL1        0.0028
     15 C          -7.8485  -14.7023   24.6109 C.ar    1  UNL1        0.0207
     16 C          -7.2269  -15.1097   23.3080 C.ar    1  UNL1        0.0985
     17 N          -7.5028  -16.4695   22.7381 N.ar    1  UNL1       -0.2478
     18 C         -10.0696  -19.5171   20.0434 C.3     1  UNL1        0.0394
     19 C         -10.7192  -18.2038   19.7223 C.3     1  UNL1        0.0765
     20 N         -11.3055  -17.3683   20.8215 N.3     1  UNL1       -0.2700
     21 C         -10.7692  -15.9925   21.0852 C.3     1  UNL1        0.0897
     22 C         -12.4279  -17.9087   21.6570 C.3     1  UNL1        0.0897
@<TRIPOS>BOND
     1    11    10    1
     2    11     1    1
     3     1     2    2
     4     2    18    1
     5    18    19    1
     6    19    20    1
     7    20    21    1
     8    20    22    1
     9     2     3    1
    10     3     4    1
    11     4     5   ar
    12     5     6   ar
    13     6     7   ar
    14     7     8   ar
    15     8     9   ar
    16    11    12    1
    17    12    13   ar
    18    13    14   ar
    19    14    15   ar
    20    15    16   ar
    21    16    17   ar
    22     9     1    1
    23    17    12   ar
    24     9     4   ar
@<TRIPOS>MOLECULE
*****
 22 24 0 0 0
SMALL
GASTEIGER

@<TRIPOS>ATOM
      1 C          -6.7031  -17.8083   22.7033 C.2     1  UNL1       -0.0247
      2 C          -7.3628  -19.0818   22.2640 C.2     1  UNL1       -0.0421
      3 C          -6.2864  -20.0489   21.8688 C.3     1  UNL1        0.0480
      4 C          -4.9616  -19.3731   22.0638 C.ar    1  UNL1       -0.0184
      5 C          -3.5540  -19.8398   21.8384 C.ar    1  UNL1       -0.0040
      6 C          -2.4039  -18.9217   22.1288 C.ar    1  UNL1       -0.0003
      7 C          -2.6614  -17.5369   22.6446 C.ar    1  UNL1       -0.0000
      8 C          -4.0690  -17.0702   22.8700 C.ar    1  UNL1       -0.0006
      9 C          -5.2191  -17.9883   22.5796 C.ar    1  UNL1       -0.0079
     10 C          -8.1867  -15.7317   22.2168 C.3     1  UNL1        0.0110
     11 C          -7.4043  -16.5718   23.1823 C.3     1  UNL1        0.0619
     12 C          -7.3231  -16.1754   24.6266 C.ar    1  UNL1        0.0627
     13 C          -8.4875  -16.4237   25.5391 C.ar    1  UNL1        0.0151
     14 C          -8.4064  -16.0273   26.9835 C.ar    1  UNL1        0.0028
     15 C          -7.1608  -15.3824   27.5154 C.ar    1  UNL1        0.0207
     16 C          -5.9965  -15.1341   26.6030 C.ar    1  UNL1        0.0985
     17 N          -6.0776  -15.5305   25.1586 N.ar    1  UNL1       -0.2478
     18 C          -8.8395  -19.3424   22.2265 C.3     1  UNL1        0.0394
     19 C          -9.6401  -18.9490   21.0206 C.3     1  UNL1        0.0765
     20 N         -10.7669  -17.9682   21.1558 N.3     1  UNL1       -0.2700
     21 C         -11.3248  -17.2942   19.9373 C.3     1  UNL1        0.0897
     22 C         -11.3359  -17.6614   22.5093 C.3     1  UNL1        0.0897
@<TRIPOS>BOND
     1    11    10    1
     2    11     1    1
     3     1     2    2
     4     2    18    1
     5    18    19    1
     6    19    20    1
     7    20    21    1
     8    20    22    1
     9     2     3    1
    10     3     4    1
    11     4     5   ar
    12     5     6   ar
    13     6     7   ar
    14     7     8   ar
    15     8     9   ar
    16    11    12    1
    17    12    13   ar
    18    13    14   ar
    19    14    15   ar
    20    15    16   ar
    21    16    17   ar
    22     9     1    1
    23    17    12   ar
    24     9     4   ar
@<TRIPOS>MOLECULE
*****
 22 24 0 0 0
SMALL
GASTEIGER

@<TRIPOS>ATOM
      1 C          -6.9871  -18.5860   21.8717 C.2     1  UNL1       -0.0247
      2 C          -6.6616  -17.5056   22.8601 C.2     1  UNL1       -0.0421
      3 C          -5.1705  -17.4523   23.0142 C.3     1  UNL1        0.0480
      4 C          -4.5744  -18.4997   22.1211 C.ar    1  UNL1       -0.0184
      5 C          -3.1544  -18.9060   21.8597 C.ar    1  UNL1       -0.0040
      6 C          -2.8570  -20.0129   20.8920 C.ar    1  UNL1       -0.0003
      7 C          -3.9797  -20.7135   20.1859 C.ar    1  UNL1       -0.0000
      8 C          -5.3998  -20.3073   20.4474 C.ar    1  UNL1       -0.0006
      9 C          -5.6971  -19.2004   21.4150 C.ar    1  UNL1       -0.0079
     10 C          -8.5994  -19.3609   19.9875 C.3     1  UNL1        0.0110
     11 C          -8.3612  -18.9824   21.4194 C.3     1  UNL1        0.0619
     12 C          -9.4971  -19.0003   22.3987 C.ar    1  UNL1        0.0627
     13 C          -9.4346  -19.8916   23.6037 C.ar    1  UNL1        0.0151
     14 C         -10.5705  -19.9096   24.5831 C.ar    1  UNL1        0.0028
     15 C         -11.7691  -19.0363   24.3576 C.ar    1  UNL1        0.0207
     16 C         -11.8317  -18.1451   23.1527 C.ar    1  UNL1        0.0985
     17 N         -10.6957  -18.1271   22.1733 N.ar    1  UNL1       -0.2478
     18 C          -7.6532  -16.6320   23.5697 C.3     1  UNL1        0.0394
     19 C          -7.1942  -15.3773   24.2517 C.3     1  UNL1        0.0765
     20 N          -6.8380  -15.4029   25.7085 N.3     1  UNL1       -0.2700
     21 C          -5.4014  -15.3145   26.1310 C.3     1  UNL1        0.0897
     22 C          -7.9183  -15.5168   26.7429 C.3     1  UNL1        0.0897
@<TRIPOS>BOND
     1    11    10    1
     2    11     1    1
     3     1     2    2
     4     2    18    1
     5    18    19    1
     6    19    20    1
     7    20    21    1
     8    20    22    1
     9     2     3    1
    10     3     4    1
    11     4     5   ar
    12     5     6   ar
    13     6     7   ar
    14     7     8   ar
    15     8     9   ar
    16    11    12    1
    17    12    13   ar
    18    13    14   ar
    19    14    15   ar
    20    15    16   ar
    21    16    17   ar
    22     9     1    1
    23    17    12   ar
    24     9     4   ar
@<TRIPOS>MOLECULE
*****
 22 24 0 0 0
SMALL
GASTEIGER

@<TRIPOS>ATOM
      1 C          -5.8235  -18.4718   22.3069 C.2     1  UNL1       -0.0247
      2 C          -4.3521  -18.6032   22.5671 C.2     1  UNL1       -0.0421
      3 C          -3.9482  -17.5069   23.5079 C.3     1  UNL1        0.0480
      4 C          -5.1699  -16.6980   23.8290 C.ar    1  UNL1       -0.0184
      5 C          -5.3767  -15.4955   24.7014 C.ar    1  UNL1       -0.0040
      6 C          -6.7426  -14.8893   24.8315 C.ar    1  UNL1       -0.0003
      7 C          -7.9016  -15.4857   24.0892 C.ar    1  UNL1       -0.0000
      8 C          -7.6948  -16.6882   23.2168 C.ar    1  UNL1       -0.0006
      9 C          -6.3289  -17.2944   23.0867 C.ar    1  UNL1       -0.0079
     10 C          -5.9718  -20.2474   20.4159 C.3     1  UNL1        0.0110
     11 C          -6.6452  -19.3617   21.4220 C.3     1  UNL1        0.0619
     12 C          -8.1402  -19.3660   21.5433 C.ar    1  UNL1        0.0627
     13 C          -8.7942  -19.9972   22.7366 C.ar    1  UNL1        0.0151
     14 C         -10.2892  -20.0015   22.8579 C.ar    1  UNL1        0.0028
     15 C         -11.1305  -19.3746   21.7858 C.ar    1  UNL1        0.0207
     16 C         -10.4766  -18.7434   20.5925 C.ar    1  UNL1        0.0985
     17 N          -8.9815  -18.7390   20.4712 N.ar    1  UNL1       -0.2478
     18 C          -3.4441  -19.6474   21.9883 C.3     1  UNL1        0.0394
     19 C          -2.0993  -19.2573   21.4506 C.3     1  UNL1        0.0765
     20 N          -1.9881  -18.1642   20.4295 N.3     1  UNL1       -0.2700
     21 C          -2.3769  -18.4264   19.0046 C.3     1  UNL1        0.0897
     22 C          -1.4882  -16.8088   20.8332 C.3     1  UNL1        0.0897
@<TRIPOS>BOND
     1    11    10    1
     2    11     1    1
     3     1     2    2
     4     2    18    1
     5    18    19    1
     6    19    20    1
     7    20    21    1
     8    20    22    1
     9     2     3    1
    10     3     4    1
    11     4     5   ar
    12     5     6   ar
    13     6     7   ar
    14     7     8   ar
    15     8     9   ar
    16    11    12    1
    17    12    13   ar
    18    13    14   ar
    19    14    15   ar
    20    15    16   ar
    21    16    17   ar
    22     9     1    1
    23    17    12   ar
    24     9     4   ar
@<TRIPOS>MOLECULE
*****
 22 24 0 0 0
SMALL
GASTEIGER

@<TRIPOS>ATOM
      1 C          -7.4056  -18.3136   21.9361 C.2     1  UNL1       -0.0247
      2 C          -7.3608  -17.0288   22.7089 C.2     1  UNL1       -0.0421
      3 C          -8.6234  -16.2713   22.4221 C.3     1  UNL1        0.0480
      4 C          -9.4484  -17.0880   21.4722 C.ar    1  UNL1       -0.0184
      5 C         -10.7877  -16.8453   20.8420 C.ar    1  UNL1       -0.0040
      6 C         -11.3744  -17.8649   19.9113 C.ar    1  UNL1       -0.0003
      7 C         -10.6218  -19.1272   19.6110 C.ar    1  UNL1       -0.0000
      8 C          -9.2825  -19.3699   20.2412 C.ar    1  UNL1       -0.0006
      9 C          -8.6958  -18.3502   21.1719 C.ar    1  UNL1       -0.0079
     10 C          -6.6575  -20.7491   22.4454 C.3     1  UNL1        0.0110
     11 C          -6.3462  -19.3755   21.9289 C.3     1  UNL1        0.0619
     12 C          -4.9756  -19.0641   21.4054 C.ar    1  UNL1        0.0627
     13 C          -3.7968  -19.0802   22.3329 C.ar    1  UNL1        0.0151
     14 C          -2.4261  -18.7688   21.8094 C.ar    1  UNL1        0.0028
     15 C          -2.2341  -18.4411   20.3582 C.ar    1  UNL1        0.0207
     16 C          -3.4128  -18.4249   19.4307 C.ar    1  UNL1        0.0985
     17 N          -4.7835  -18.7363   19.9543 N.ar    1  UNL1       -0.2478
     18 C          -6.2488  -16.5802   23.6101 C.3     1  UNL1        0.0394
     19 C          -6.4182  -15.3538   24.4569 C.3     1  UNL1        0.0765
     20 N          -7.0933  -15.4522   25.7928 N.3     1  UNL1       -0.2700
     21 C          -6.2710  -15.5134   27.0460 C.3     1  UNL1        0.0897
     22 C          -8.5905  -15.4894   25.8756 C.3     1  UNL1        0.0897
@<TRIPOS>BOND
     1    11    10    1
     2    11     1    1
     3     1     2    2
     4     2    18    1
     5    18    19    1
     6    19    20    1
     7    20    21    1
     8    20    22    1
     9     2     3    1
    10     3     4    1
    11     4     5   ar
    12     5     6   ar
    13     6     7   ar
    14     7     8   ar
    15     8     9   ar
    16    11    12    1
    17    12    13   ar
    18    13    14   ar
    19    14    15   ar
    20    15    16   ar
    21    16    17   ar
    22     9     1    1
    23    17    12   ar
    24     9     4   ar
@<TRIPOS>MOLECULE
*****
 22 24 0 0 0
SMALL
GASTEIGER

@<TRIPOS>ATOM
      1 C          -6.6882  -18.7337   21.5961 C.2     1  UNL1       -0.0247
      2 C          -6.9177  -19.7190   20.4886 C.2     1  UNL1       -0.0421
      3 C          -5.5894  -20.2980   20.1008 C.3     1  UNL1        0.0480
      4 C          -4.5390  -19.6706   20.9685 C.ar    1  UNL1       -0.0184
      5 C          -3.0520  -19.8547   21.0366 C.ar    1  UNL1       -0.0040
      6 C          -2.2440  -19.0720   22.0288 C.ar    1  UNL1       -0.0003
      7 C          -2.9231  -18.1052   22.9530 C.ar    1  UNL1       -0.0000
      8 C          -4.4102  -17.9211   22.8849 C.ar    1  UNL1       -0.0006
      9 C          -5.2181  -18.7038   21.8927 C.ar    1  UNL1       -0.0079
     10 C          -7.7632  -16.4293   22.1292 C.3     1  UNL1        0.0110
     11 C          -7.7435  -17.9210   22.2859 C.3     1  UNL1        0.0619
     12 C          -8.7791  -18.5999   23.1324 C.ar    1  UNL1        0.0627
     13 C          -8.6419  -20.0571   23.4606 C.ar    1  UNL1        0.0151
     14 C          -9.6775  -20.7361   24.3071 C.ar    1  UNL1        0.0028
     15 C         -10.8504  -19.9577   24.8254 C.ar    1  UNL1        0.0207
     16 C         -10.9876  -18.5006   24.4972 C.ar    1  UNL1        0.0985
     17 N          -9.9520  -17.8216   23.6507 N.ar    1  UNL1       -0.2478
     18 C          -8.2428  -20.0646   19.8765 C.3     1  UNL1        0.0394
     19 C          -9.1429  -18.9758   19.3723 C.3     1  UNL1        0.0765
     20 N         -10.4693  -18.7345   20.0299 N.3     1  UNL1       -0.2700
     21 C         -11.1349  -19.8351   20.8018 C.3     1  UNL1        0.0897
     22 C         -11.1300  -17.3928   19.9157 C.3     1  UNL1        0.0897
@<TRIPOS>BOND
     1    11    10    1
     2    11     1    1
     3     1     2    2
     4     2    18    1
     5    18    19    1
     6    19    20    1
     7    20    21    1
     8    20    22    1
     9     2     3    1
    10     3     4    1
    11     4     5   ar
    12     5     6   ar
    13     6     7   ar
    14     7     8   ar
    15     8     9   ar
    16    11    12    1
    17    12    13   ar
    18    13    14   ar
    19    14    15   ar
    20    15    16   ar
    21    16    17   ar
    22     9     1    1
    23    17    12   ar
    24     9     4   ar
@<TRIPOS>MOLECULE
*****
 22 24 0 0 0
SMALL
GASTEIGER

@<TRIPOS>ATOM
      1 C          -7.4577  -18.2864   22.0235 C.2     1  UNL1       -0.0247
      2 C          -6.1358  -18.9618   21.8082 C.2     1  UNL1       -0.0421
      3 C          -5.1065  -18.2364   22.6231 C.3     1  UNL1        0.0480
      4 C          -5.7922  -17.1126   23.3421 C.ar    1  UNL1       -0.0184
      5 C          -5.2812  -16.0652   24.2864 C.ar    1  UNL1       -0.0040
      6 C          -6.2233  -15.0487   24.8600 C.ar    1  UNL1       -0.0003
      7 C          -7.6765  -15.0796   24.4894 C.ar    1  UNL1       -0.0000
      8 C          -8.1875  -16.1271   23.5452 C.ar    1  UNL1       -0.0006
      9 C          -7.2454  -17.1435   22.9715 C.ar    1  UNL1       -0.0079
     10 C          -8.7904  -19.2388   20.0068 C.3     1  UNL1        0.0110
     11 C          -8.7629  -18.6841   21.4002 C.3     1  UNL1        0.0619
     12 C         -10.0405  -18.5270   22.1702 C.ar    1  UNL1        0.0627
     13 C         -10.1969  -19.1897   23.5069 C.ar    1  UNL1        0.0151
     14 C         -11.4745  -19.0326   24.2770 C.ar    1  UNL1        0.0028
     15 C         -12.5958  -18.2129   23.7104 C.ar    1  UNL1        0.0207
     16 C         -12.4394  -17.5503   22.3738 C.ar    1  UNL1        0.0985
     17 N         -11.1618  -17.7074   21.6037 N.ar    1  UNL1       -0.2478
     18 C          -5.8870  -20.1535   20.9318 C.3     1  UNL1        0.0394
     19 C          -4.4827  -20.6087   20.6659 C.3     1  UNL1        0.0765
     20 N          -3.4251  -19.6076   20.3062 N.3     1  UNL1       -0.2700
     21 C          -3.6615  -18.6358   19.1883 C.3     1  UNL1        0.0897
     22 C          -2.1312  -19.5783   21.0644 C.3     1  UNL1        0.0897
@<TRIPOS>BOND
     1    11    10    1
     2    11     1    1
     3     1     2    2
     4     2    18    1
     5    18    19    1
     6    19    20    1
     7    20    21    1
     8    20    22    1
     9     2     3    1
    10     3     4    1
    11     4     5   ar
    12     5     6   ar
    13     6     7   ar
    14     7     8   ar
    15     8     9   ar
    16    11    12    1
    17    12    13   ar
    18    13    14   ar
    19    14    15   ar
    20    15    16   ar
    21    16    17   ar
    22     9     1    1
    23    17    12   ar
    24     9     4   ar
@<TRIPOS>MOLECULE
*****
 22 24 0 0 0
SMALL
GASTEIGER

@<TRIPOS>ATOM
      1 C          -7.3954  -18.5206   21.7700 C.2     1  UNL1       -0.0247
      2 C          -5.9520  -18.9279   21.7452 C.2     1  UNL1       -0.0421
      3 C          -5.7583  -19.8786   20.6012 C.3     1  UNL1        0.0480
      4 C          -7.0820  -20.0589   19.9191 C.ar    1  UNL1       -0.0184
      5 C          -7.4967  -20.8788   18.7335 C.ar    1  UNL1       -0.0040
      6 C          -8.9233  -20.8594   18.2703 C.ar    1  UNL1       -0.0003
      7 C          -9.9350  -20.0201   18.9926 C.ar    1  UNL1       -0.0000
      8 C          -9.5203  -19.2001   20.1782 C.ar    1  UNL1       -0.0006
      9 C          -8.0938  -19.2195   20.6414 C.ar    1  UNL1       -0.0079
     10 C          -7.2350  -16.4401   23.3179 C.3     1  UNL1        0.0110
     11 C          -8.0291  -17.5795   22.7512 C.3     1  UNL1        0.0619
     12 C          -9.4570  -17.7777   23.1656 C.ar    1  UNL1        0.0627
     13 C          -9.8165  -18.8844   24.1123 C.ar    1  UNL1        0.0151
     14 C         -11.2444  -19.0827   24.5268 C.ar    1  UNL1        0.0028
     15 C         -12.3128  -18.1742   23.9947 C.ar    1  UNL1        0.0207
     16 C         -11.9534  -17.0675   23.0481 C.ar    1  UNL1        0.0985
     17 N         -10.5255  -16.8693   22.6336 N.ar    1  UNL1       -0.2478
     18 C          -4.8889  -18.4657   22.6971 C.3     1  UNL1        0.0394
     19 C          -3.4410  -18.6193   22.3366 C.3     1  UNL1        0.0765
     20 N          -2.7902  -17.6350   21.4105 N.3     1  UNL1       -0.2700
     21 C          -2.2982  -16.3202   21.9390 C.3     1  UNL1        0.0897
     22 C          -2.6314  -17.9655   19.9561 C.3     1  UNL1        0.0897
@<TRIPOS>BOND
     1    11    10    1
     2    11     1    1
     3     1     2    2
     4     2    18    1
     5    18    19    1
     6    19    20    1
     7    20    21    1
     8    20    22    1
     9     2     3    1
    10     3     4    1
    11     4     5   ar
    12     5     6   ar
    13     6     7   ar
    14     7     8   ar
    15     8     9   ar
    16    11    12    1
    17    12    13   ar
    18    13    14   ar
    19    14    15   ar
    20    15    16   ar
    21    16    17   ar
    22     9     1    1
    23    17    12   ar
    24     9     4   ar
