@<TRIPOS>MOLECULE
*****
 30 33 0 0 0
SMALL
GASTEIGER

@<TRIPOS>ATOM
      1 C          -9.8896  -19.2759   20.9423 C.2     1  UNL1        0.2707
      2 O          -9.6084  -18.6290   19.6185 O.2     1  UNL1       -0.2707
      3 N          -8.7550  -19.6675   21.8418 N.am    1  UNL1       -0.2809
      4 H          -8.9396  -20.0921   22.7107 H       1  UNL1        0.1550
      5 C          -7.3391  -19.4122   21.4176 C.ar    1  UNL1        0.0504
      6 C          -6.4055  -18.6704   22.3278 C.ar    1  UNL1        0.0147
      7 C          -4.9897  -18.4152   21.9035 C.ar    1  UNL1        0.0013
      8 C          -4.5073  -18.9016   20.5691 C.ar    1  UNL1        0.0001
      9 C          -5.4407  -19.6433   19.6589 C.ar    1  UNL1        0.0013
     10 C          -6.8567  -19.8986   20.0831 C.ar    1  UNL1        0.0147
     11 C          -3.0914  -18.6463   20.1448 C.ar    1  UNL1        0.0000
     12 C          -2.8094  -18.0172   18.8125 C.ar    1  UNL1        0.0000
     13 C          -1.3935  -17.7619   18.3883 C.ar    1  UNL1        0.0000
     14 C          -0.2595  -18.1356   19.2962 C.ar    1  UNL1        0.0000
     15 C          -0.5414  -18.7647   20.6284 C.ar    1  UNL1        0.0000
     16 C          -1.9574  -19.0200   21.0527 C.ar    1  UNL1        0.0000
     17 C         -11.3056  -19.5312   21.3665 C.3     1  UNL1        0.2897
     18 O         -11.8216  -18.9467   22.6480 O.3     1  UNL1       -0.4656
     19 C          -9.0647  -16.6023   25.3225 C.ar    1  UNL1        0.0175
     20 C          -9.4464  -18.0068   25.6853 C.ar    1  UNL1        0.0046
     21 C         -10.3654  -18.7882   24.7938 C.ar    1  UNL1        0.0370
     22 C         -10.9026  -18.1652   23.5395 C.ar    1  UNL1        0.1393
     23 C         -10.5208  -16.7607   23.1767 C.ar    1  UNL1        0.0370
     24 C          -9.6018  -15.9793   24.0682 C.ar    1  UNL1        0.0046
     25 C          -5.9784  -15.7823   24.6499 C.3     1  UNL1        0.1537
     26 N          -6.7271  -15.4439   25.9049 N.ar    1  UNL1       -0.2488
     27 N          -6.1886  -14.6692   27.0710 N.ar    1  UNL1       -0.1676
     28 C          -7.2745  -14.5673   28.1009 C.ar    1  UNL1        0.1217
     29 C          -8.4839  -15.2790   27.5713 C.ar    1  UNL1        0.0412
     30 C          -8.1457  -15.8208   26.2140 C.ar    1  UNL1        0.0795
@<TRIPOS>BOND
     1    25    26    1
     2    26    27   ar
     3    27    28   ar
     4    28    29   ar
     5    29    30   ar
     6    30    19    1
     7    19    20   ar
     8    20    21   ar
     9    21    22   ar
    10    22    18    1
    11    18    17    1
    12    17     1    1
    13     1     2    2
    14     1     3   am
    15     3     5    1
    16     5     6   ar
    17     6     7   ar
    18     7     8   ar
    19     8    11    1
    20    11    12   ar
    21    12    13   ar
    22    13    14   ar
    23    14    15   ar
    24    15    16   ar
    25     8     9   ar
    26     9    10   ar
    27    22    23   ar
    28    23    24   ar
    29    30    26   ar
    30    24    19   ar
    31    10     5   ar
    32    16    11   ar
    33     3     4    1
@<TRIPOS>MOLECULE
*****
 30 33 0 0 0
SMALL
GASTEIGER

@<TRIPOS>ATOM
      1 C          -0.8144    3.6013   19.3994 C.2     1  UNL1        0.2707
      2 O          -1.2754    5.0157   19.2072 O.2     1  UNL1       -0.2707
      3 N          -1.4842    2.7259   20.4166 N.am    1  UNL1       -0.2809
      4 H          -1.1817    1.7975   20.5428 H       1  UNL1        0.1550
      5 C          -2.6150    3.2648   21.2417 C.ar    1  UNL1        0.0504
      6 C          -4.0152    3.2374   20.7042 C.ar    1  UNL1        0.0147
      7 C          -5.1460    3.7763   21.5293 C.ar    1  UNL1        0.0013
      8 C          -4.8767    4.3427   22.8919 C.ar    1  UNL1        0.0001
      9 C          -3.4766    4.3701   23.4294 C.ar    1  UNL1        0.0013
     10 C          -2.3457    3.8312   22.6043 C.ar    1  UNL1        0.0147
     11 C          -6.0075    4.8817   23.7169 C.ar    1  UNL1        0.0000
     12 C          -5.7195    5.6981   24.9419 C.ar    1  UNL1        0.0000
     13 C          -6.8503    6.2371   25.7670 C.ar    1  UNL1        0.0000
     14 C          -8.2691    5.9596   25.3672 C.ar    1  UNL1        0.0000
     15 C          -8.5572    5.1432   24.1423 C.ar    1  UNL1        0.0000
     16 C          -7.4264    4.6042   23.3171 C.ar    1  UNL1        0.0000
     17 C           0.3164    3.0624   18.5742 C.3     1  UNL1        0.2897
     18 O           0.3002    1.6321   18.1227 O.3     1  UNL1       -0.4656
     19 C           3.1437   -1.3373   19.9523 C.ar    1  UNL1        0.0175
     20 C           1.8599   -0.9997   20.6508 C.ar    1  UNL1        0.0046
     21 C           0.9121   -0.0099   20.0409 C.ar    1  UNL1        0.0370
     22 C           1.2481    0.6422   18.7326 C.ar    1  UNL1        0.1393
     23 C           2.5318    0.3046   18.0341 C.ar    1  UNL1        0.0370
     24 C           3.4796   -0.6852   18.6439 C.ar    1  UNL1        0.0046
     25 C           3.3967   -4.4922   19.1568 C.3     1  UNL1        0.1537
     26 N           4.2078   -3.7772   20.1965 N.ar    1  UNL1       -0.2488
     27 N           5.2777   -4.3869   21.0530 N.ar    1  UNL1       -0.1676
     28 C           5.8226   -3.3136   21.9481 C.ar    1  UNL1        0.1217
     29 C           5.0895   -2.0406   21.6447 C.ar    1  UNL1        0.0412
     30 C           4.0915   -2.3272   20.5621 C.ar    1  UNL1        0.0795
@<TRIPOS>BOND
     1    25    26    1
     2    26    27   ar
     3    27    28   ar
     4    28    29   ar
     5    29    30   ar
     6    30    19    1
     7    19    20   ar
     8    20    21   ar
     9    21    22   ar
    10    22    18    1
    11    18    17    1
    12    17     1    1
    13     1     2    2
    14     1     3   am
    15     3     5    1
    16     5     6   ar
    17     6     7   ar
    18     7     8   ar
    19     8    11    1
    20    11    12   ar
    21    12    13   ar
    22    13    14   ar
    23    14    15   ar
    24    15    16   ar
    25     8     9   ar
    26     9    10   ar
    27    22    23   ar
    28    23    24   ar
    29    30    26   ar
    30    24    19   ar
    31    10     5   ar
    32    16    11   ar
    33     3     4    1
@<TRIPOS>MOLECULE
*****
 30 33 0 0 0
SMALL
GASTEIGER

@<TRIPOS>ATOM
      1 C           0.1259    3.8398   18.3982 C.2     1  UNL1        0.2707
      2 O           0.9256    4.2299   19.6059 O.2     1  UNL1       -0.2707
      3 N           0.1253    2.4158   17.9270 N.am    1  UNL1       -0.2809
      4 H          -0.3996    2.1598   17.1344 H       1  UNL1        0.1550
      5 C           0.9243    1.3818   18.6635 C.ar    1  UNL1        0.0504
      6 C           0.3297    0.6771   19.8468 C.ar    1  UNL1        0.0147
      7 C           1.1287   -0.3569   20.5832 C.ar    1  UNL1        0.0013
      8 C           2.5222   -0.6863   20.1365 C.ar    1  UNL1        0.0001
      9 C           3.1168    0.0184   18.9533 C.ar    1  UNL1        0.0013
     10 C           2.3178    1.0524   18.2168 C.ar    1  UNL1        0.0147
     11 C           3.3212   -1.7203   20.8729 C.ar    1  UNL1        0.0000
     12 C           3.6180   -1.5396   22.3322 C.ar    1  UNL1        0.0000
     13 C           4.4170   -2.5736   23.0687 C.ar    1  UNL1        0.0000
     14 C           4.9192   -3.7883   22.3459 C.ar    1  UNL1        0.0000
     15 C           4.6224   -3.9690   20.8868 C.ar    1  UNL1        0.0000
     16 C           3.8234   -2.9350   20.1502 C.ar    1  UNL1        0.0000
     17 C          -0.6731    4.8739   17.6618 C.3     1  UNL1        0.2897
     18 O          -2.1322    5.0487   17.9625 O.3     1  UNL1       -0.4656
     19 C          -3.6603    4.4032   22.1456 C.ar    1  UNL1        0.0175
     20 C          -3.8688    3.3483   21.0998 C.ar    1  UNL1        0.0046
     21 C          -3.3595    3.5634   19.7055 C.ar    1  UNL1        0.0370
     22 C          -2.6416    4.8335   19.3569 C.ar    1  UNL1        0.1393
     23 C          -2.4331    5.8884   20.4027 C.ar    1  UNL1        0.0370
     24 C          -2.9424    5.6733   21.7970 C.ar    1  UNL1        0.0046
     25 C          -6.7940    4.3388   23.0545 C.3     1  UNL1        0.1537
     26 N          -5.6101    4.1584   23.9577 N.ar    1  UNL1       -0.2488
     27 N          -5.6587    3.9168   25.4373 N.ar    1  UNL1       -0.1676
     28 C          -4.2484    3.7971   25.9341 C.ar    1  UNL1        0.1217
     29 C          -3.3282    3.9647   24.7614 C.ar    1  UNL1        0.0412
     30 C          -4.1697    4.1880   23.5400 C.ar    1  UNL1        0.0795
@<TRIPOS>BOND
     1    25    26    1
     2    26    27   ar
     3    27    28   ar
     4    28    29   ar
     5    29    30   ar
     6    30    19    1
     7    19    20   ar
     8    20    21   ar
     9    21    22   ar
    10    22    18    1
    11    18    17    1
    12    17     1    1
    13     1     2    2
    14     1     3   am
    15     3     5    1
    16     5     6   ar
    17     6     7   ar
    18     7     8   ar
    19     8    11    1
    20    11    12   ar
    21    12    13   ar
    22    13    14   ar
    23    14    15   ar
    24    15    16   ar
    25     8     9   ar
    26     9    10   ar
    27    22    23   ar
    28    23    24   ar
    29    30    26   ar
    30    24    19   ar
    31    10     5   ar
    32    16    11   ar
    33     3     4    1
@<TRIPOS>MOLECULE
*****
 30 33 0 0 0
SMALL
GASTEIGER

@<TRIPOS>ATOM
      1 C           3.2312   -0.0295   18.6102 C.2     1  UNL1        0.2707
      2 O           3.7265    1.3203   19.0376 O.2     1  UNL1       -0.2707
      3 N           2.4308   -0.8702   19.5602 N.am    1  UNL1       -0.2809
      4 H           2.1057   -1.7561   19.2796 H       1  UNL1        0.1550
      5 C           2.1257   -0.3610   20.9377 C.ar    1  UNL1        0.0504
      6 C           0.9859    0.5908   21.1501 C.ar    1  UNL1        0.0147
      7 C           0.6808    1.1000   22.5277 C.ar    1  UNL1        0.0013
      8 C           1.5154    0.6574   23.6928 C.ar    1  UNL1        0.0001
      9 C           2.6551   -0.2944   23.4804 C.ar    1  UNL1        0.0013
     10 C           2.9603   -0.8036   22.1029 C.ar    1  UNL1        0.0147
     11 C           1.2102    1.1665   25.0703 C.ar    1  UNL1        0.0000
     12 C           2.3296    1.5063   26.0094 C.ar    1  UNL1        0.0000
     13 C           2.0244    2.0155   27.3869 C.ar    1  UNL1        0.0000
     14 C           0.6000    2.1848   27.8255 C.ar    1  UNL1        0.0000
     15 C          -0.5193    1.8450   26.8865 C.ar    1  UNL1        0.0000
     16 C          -0.2142    1.3359   25.5089 C.ar    1  UNL1        0.0000
     17 C           3.5364   -0.5387   17.2325 C.3     1  UNL1        0.2897
     18 O           4.7835   -1.3349   16.9864 O.3     1  UNL1       -0.4656
     19 C           6.7441   -3.5507   20.3770 C.ar    1  UNL1        0.0175
     20 C           7.3296   -2.2597   19.8869 C.ar    1  UNL1        0.0046
     21 C           6.6761   -1.5211   18.7567 C.ar    1  UNL1        0.0370
     22 C           5.4370   -2.0736   18.1167 C.ar    1  UNL1        0.1393
     23 C           4.8516   -3.3646   18.6068 C.ar    1  UNL1        0.0370
     24 C           5.5051   -4.1032   19.7370 C.ar    1  UNL1        0.0046
     25 C           5.7702   -3.5421   23.4917 C.3     1  UNL1        0.1537
     26 N           6.9500   -4.2854   22.9389 N.ar    1  UNL1       -0.2488
     27 N           7.8892   -5.1553   23.7206 N.ar    1  UNL1       -0.1676
     28 C           8.9174   -5.6969   22.7721 C.ar    1  UNL1        0.1217
     29 C           8.6136   -5.1617   21.4042 C.ar    1  UNL1        0.0412
     30 C           7.3976   -4.2894   21.5072 C.ar    1  UNL1        0.0795
@<TRIPOS>BOND
     1    25    26    1
     2    26    27   ar
     3    27    28   ar
     4    28    29   ar
     5    29    30   ar
     6    30    19    1
     7    19    20   ar
     8    20    21   ar
     9    21    22   ar
    10    22    18    1
    11    18    17    1
    12    17     1    1
    13     1     2    2
    14     1     3   am
    15     3     5    1
    16     5     6   ar
    17     6     7   ar
    18     7     8   ar
    19     8    11    1
    20    11    12   ar
    21    12    13   ar
    22    13    14   ar
    23    14    15   ar
    24    15    16   ar
    25     8     9   ar
    26     9    10   ar
    27    22    23   ar
    28    23    24   ar
    29    30    26   ar
    30    24    19   ar
    31    10     5   ar
    32    16    11   ar
    33     3     4    1
@<TRIPOS>MOLECULE
*****
 30 33 0 0 0
SMALL
GASTEIGER

@<TRIPOS>ATOM
      1 C          -1.3513    3.6387   19.3437 C.2     1  UNL1        0.2707
      2 O          -1.8369    5.0415   19.1287 O.2     1  UNL1       -0.2707
      3 N          -1.9305    2.8055   20.4484 N.am    1  UNL1       -0.2809
      4 H          -1.6118    1.8848   20.5894 H       1  UNL1        0.1550
      5 C          -2.9952    3.3752   21.3381 C.ar    1  UNL1        0.0504
      6 C          -4.4426    3.1569   21.0102 C.ar    1  UNL1        0.0147
      7 C          -5.5074    3.7266   21.9000 C.ar    1  UNL1        0.0013
      8 C          -5.1248    4.5147   23.1176 C.ar    1  UNL1        0.0001
      9 C          -3.6775    4.7330   23.4455 C.ar    1  UNL1        0.0013
     10 C          -2.6127    4.1633   22.5557 C.ar    1  UNL1        0.0147
     11 C          -6.1896    5.0844   24.0073 C.ar    1  UNL1        0.0000
     12 C          -7.6122    5.1386   23.5347 C.ar    1  UNL1        0.0000
     13 C          -8.6769    5.7083   24.4244 C.ar    1  UNL1        0.0000
     14 C          -8.3191    6.2239   25.7868 C.ar    1  UNL1        0.0000
     15 C          -6.8966    6.1697   26.2595 C.ar    1  UNL1        0.0000
     16 C          -5.8318    5.6000   25.3698 C.ar    1  UNL1        0.0000
     17 C          -0.2865    3.0690   18.4539 C.3     1  UNL1        0.2897
     18 O           1.1189    2.9312   18.9595 O.3     1  UNL1       -0.4656
     19 C           2.8536   -1.1545   19.6997 C.ar    1  UNL1        0.0175
     20 C           1.4623   -0.8356   20.1607 C.ar    1  UNL1        0.0046
     21 C           0.8841    0.5262   19.9140 C.ar    1  UNL1        0.0370
     22 C           1.6972    1.5693   19.2062 C.ar    1  UNL1        0.1393
     23 C           3.0885    1.2505   18.7452 C.ar    1  UNL1        0.0370
     24 C           3.6667   -0.1114   18.9920 C.ar    1  UNL1        0.0046
     25 C           4.3452   -2.1393   22.4301 C.3     1  UNL1        0.1537
     26 N           4.1174   -2.9691   21.2014 N.ar    1  UNL1       -0.2488
     27 N           4.5353   -4.3972   21.0120 N.ar    1  UNL1       -0.1676
     28 C           4.1080   -4.8272   19.6399 C.ar    1  UNL1        0.1217
     29 C           3.4260   -3.6648   18.9814 C.ar    1  UNL1        0.0412
     30 C           3.4318   -2.5164   19.9464 C.ar    1  UNL1        0.0795
@<TRIPOS>BOND
     1    25    26    1
     2    26    27   ar
     3    27    28   ar
     4    28    29   ar
     5    29    30   ar
     6    30    19    1
     7    19    20   ar
     8    20    21   ar
     9    21    22   ar
    10    22    18    1
    11    18    17    1
    12    17     1    1
    13     1     2    2
    14     1     3   am
    15     3     5    1
    16     5     6   ar
    17     6     7   ar
    18     7     8   ar
    19     8    11    1
    20    11    12   ar
    21    12    13   ar
    22    13    14   ar
    23    14    15   ar
    24    15    16   ar
    25     8     9   ar
    26     9    10   ar
    27    22    23   ar
    28    23    24   ar
    29    30    26   ar
    30    24    19   ar
    31    10     5   ar
    32    16    11   ar
    33     3     4    1
@<TRIPOS>MOLECULE
*****
 30 33 0 0 0
SMALL
GASTEIGER

@<TRIPOS>ATOM
      1 C          -0.9188    2.7593   20.3657 C.2     1  UNL1        0.2707
      2 O           0.0331    2.8640   19.2112 O.2     1  UNL1       -0.2707
      3 N          -0.6820    1.7432   21.4434 N.am    1  UNL1       -0.2809
      4 H          -1.3068    1.6745   22.2011 H       1  UNL1        0.1550
      5 C           0.5068    0.8317   21.3665 C.ar    1  UNL1        0.0504
      6 C           1.6022    0.9402   22.3855 C.ar    1  UNL1        0.0147
      7 C           2.7910    0.0287   22.3087 C.ar    1  UNL1        0.0013
      8 C           2.8845   -0.9912   21.2128 C.ar    1  UNL1        0.0001
      9 C           1.7892   -1.0997   20.1938 C.ar    1  UNL1        0.0013
     10 C           0.6003   -0.1882   20.2706 C.ar    1  UNL1        0.0147
     11 C           4.0733   -1.9027   21.1359 C.ar    1  UNL1        0.0000
     12 C           4.4053   -2.8013   22.2902 C.ar    1  UNL1        0.0000
     13 C           5.5941   -3.7128   22.2133 C.ar    1  UNL1        0.0000
     14 C           6.4509   -3.7257   20.9822 C.ar    1  UNL1        0.0000
     15 C           6.1189   -2.8272   19.8279 C.ar    1  UNL1        0.0000
     16 C           4.9301   -1.9156   19.9048 C.ar    1  UNL1        0.0000
     17 C          -2.1077    3.6709   20.4426 C.3     1  UNL1        0.2897
     18 O          -3.4427    3.1287   20.8593 O.3     1  UNL1       -0.4656
     19 C          -5.5927    4.9106   24.3881 C.ar    1  UNL1        0.0175
     20 C          -5.0742    5.8010   23.2980 C.ar    1  UNL1        0.0046
     21 C          -4.3575    5.2070   22.1218 C.ar    1  UNL1        0.0370
     22 C          -4.1594    3.7227   22.0356 C.ar    1  UNL1        0.1393
     23 C          -4.6780    2.8323   23.1256 C.ar    1  UNL1        0.0370
     24 C          -5.3946    3.4262   24.3019 C.ar    1  UNL1        0.0046
     25 C          -8.6658    6.0087   24.4075 C.3     1  UNL1        0.1537
     26 N          -7.7219    6.0092   25.5733 N.ar    1  UNL1       -0.2488
     27 N          -8.0249    6.5146   26.9527 N.ar    1  UNL1       -0.1676
     28 C          -6.7996    6.3222   27.7964 C.ar    1  UNL1        0.1217
     29 C          -5.7394    5.6980   26.9383 C.ar    1  UNL1        0.0412
     30 C          -6.3094    5.5045   25.5644 C.ar    1  UNL1        0.0795
@<TRIPOS>BOND
     1    25    26    1
     2    26    27   ar
     3    27    28   ar
     4    28    29   ar
     5    29    30   ar
     6    30    19    1
     7    19    20   ar
     8    20    21   ar
     9    21    22   ar
    10    22    18    1
    11    18    17    1
    12    17     1    1
    13     1     2    2
    14     1     3   am
    15     3     5    1
    16     5     6   ar
    17     6     7   ar
    18     7     8   ar
    19     8    11    1
    20    11    12   ar
    21    12    13   ar
    22    13    14   ar
    23    14    15   ar
    24    15    16   ar
    25     8     9   ar
    26     9    10   ar
    27    22    23   ar
    28    23    24   ar
    29    30    26   ar
    30    24    19   ar
    31    10     5   ar
    32    16    11   ar
    33     3     4    1
@<TRIPOS>MOLECULE
*****
 30 33 0 0 0
SMALL
GASTEIGER

@<TRIPOS>ATOM
      1 C           0.2871    3.8040   18.2694 C.2     1  UNL1        0.2707
      2 O           1.2227    4.2437   19.3562 O.2     1  UNL1       -0.2707
      3 N           0.1538    2.3470   17.9385 N.am    1  UNL1       -0.2809
      4 H          -0.4603    2.0584   17.2252 H       1  UNL1        0.1550
      5 C           0.9563    1.3299   18.6944 C.ar    1  UNL1        0.0504
      6 C           0.3675    0.6527   19.8965 C.ar    1  UNL1        0.0147
      7 C           1.1700   -0.3645   20.6524 C.ar    1  UNL1        0.0013
      8 C           2.5611   -0.7045   20.2063 C.ar    1  UNL1        0.0001
      9 C           3.1499   -0.0274   19.0043 C.ar    1  UNL1        0.0013
     10 C           2.3474    0.9898   18.2483 C.ar    1  UNL1        0.0147
     11 C           3.3635   -1.7217   20.9622 C.ar    1  UNL1        0.0000
     12 C           3.6048   -1.5450   22.4321 C.ar    1  UNL1        0.0000
     13 C           4.4072   -2.5622   23.1880 C.ar    1  UNL1        0.0000
     14 C           4.9684   -3.7561   22.4740 C.ar    1  UNL1        0.0000
     15 C           4.7272   -3.9328   21.0042 C.ar    1  UNL1        0.0000
     16 C           3.9247   -2.9156   20.2482 C.ar    1  UNL1        0.0000
     17 C          -0.5154    4.8212   17.5135 C.3     1  UNL1        0.2897
     18 O          -1.9745    4.9984   17.8125 O.3     1  UNL1       -0.4656
     19 C          -3.4996    4.4105   22.0052 C.ar    1  UNL1        0.0175
     20 C          -2.6651    5.6116   21.6722 C.ar    1  UNL1        0.0046
     21 C          -2.1568    5.8076   20.2747 C.ar    1  UNL1        0.0370
     22 C          -2.4829    4.8024   19.2101 C.ar    1  UNL1        0.1393
     23 C          -3.3174    3.6013   19.5431 C.ar    1  UNL1        0.0370
     24 C          -3.8257    3.4054   20.9407 C.ar    1  UNL1        0.0046
     25 C          -1.7340    3.4309   24.5690 C.3     1  UNL1        0.1537
     26 N          -3.1964    3.7643   24.5812 N.ar    1  UNL1       -0.2488
     27 N          -4.1040    3.7059   25.7740 N.ar    1  UNL1       -0.1676
     28 C          -5.4766    4.1201   25.3328 C.ar    1  UNL1        0.1217
     29 C          -5.4172    4.4345   23.8674 C.ar    1  UNL1        0.0412
     30 C          -4.0080    4.2146   23.4028 C.ar    1  UNL1        0.0795
@<TRIPOS>BOND
     1    25    26    1
     2    26    27   ar
     3    27    28   ar
     4    28    29   ar
     5    29    30   ar
     6    30    19    1
     7    19    20   ar
     8    20    21   ar
     9    21    22   ar
    10    22    18    1
    11    18    17    1
    12    17     1    1
    13     1     2    2
    14     1     3   am
    15     3     5    1
    16     5     6   ar
    17     6     7   ar
    18     7     8   ar
    19     8    11    1
    20    11    12   ar
    21    12    13   ar
    22    13    14   ar
    23    14    15   ar
    24    15    16   ar
    25     8     9   ar
    26     9    10   ar
    27    22    23   ar
    28    23    24   ar
    29    30    26   ar
    30    24    19   ar
    31    10     5   ar
    32    16    11   ar
    33     3     4    1
@<TRIPOS>MOLECULE
*****
 30 33 0 0 0
SMALL
GASTEIGER

@<TRIPOS>ATOM
      1 C          -0.5918    3.4489   21.5654 C.2     1  UNL1        0.2707
      2 O           0.8284    3.8716   21.7990 O.2     1  UNL1       -0.2707
      3 N          -0.8837    2.1475   20.8791 N.am    1  UNL1       -0.2809
      4 H          -1.8158    1.8701   20.7258 H       1  UNL1        0.1550
      5 C           0.2444    1.2688   20.4263 C.ar    1  UNL1        0.0504
      6 C           0.7601    1.3743   19.0216 C.ar    1  UNL1        0.0147
      7 C           1.8882    0.4956   18.5688 C.ar    1  UNL1        0.0013
      8 C           2.5008   -0.4887   19.5207 C.ar    1  UNL1        0.0001
      9 C           1.9852   -0.5942   20.9253 C.ar    1  UNL1        0.0013
     10 C           0.8570    0.2845   21.3781 C.ar    1  UNL1        0.0147
     11 C           3.6290   -1.3674   19.0679 C.ar    1  UNL1        0.0000
     12 C           3.5615   -2.8492   19.2909 C.ar    1  UNL1        0.0000
     13 C           4.6897   -3.7279   18.8382 C.ar    1  UNL1        0.0000
     14 C           5.8853   -3.1249   18.1623 C.ar    1  UNL1        0.0000
     15 C           5.9528   -1.6431   17.9392 C.ar    1  UNL1        0.0000
     16 C           4.8246   -0.7643   18.3920 C.ar    1  UNL1        0.0000
     17 C          -1.7200    4.3277   22.0182 C.3     1  UNL1        0.2897
     18 O          -2.5881    3.9024   23.1651 O.3     1  UNL1       -0.4656
     19 C          -0.7175    2.6888   27.0738 C.ar    1  UNL1        0.0175
     20 C          -1.7053    3.8169   27.0334 C.ar    1  UNL1        0.0046
     21 C          -2.3288    4.2214   25.7305 C.ar    1  UNL1        0.0370
     22 C          -1.9645    3.4978   24.4681 C.ar    1  UNL1        0.1393
     23 C          -0.9767    2.3698   24.5085 C.ar    1  UNL1        0.0370
     24 C          -0.3532    1.9653   25.8114 C.ar    1  UNL1        0.0046
     25 C          -1.3675   -0.0365   28.7472 C.3     1  UNL1        0.1537
     26 N          -0.3927    1.0316   29.1459 N.ar    1  UNL1       -0.2488
     27 N           0.4545    1.0345   30.3837 N.ar    1  UNL1       -0.1676
     28 C           1.2769    2.2890   30.3797 C.ar    1  UNL1        0.1217
     29 C           0.9379    3.0614   29.1393 C.ar    1  UNL1        0.0412
     30 C          -0.0939    2.2842   28.3768 C.ar    1  UNL1        0.0795
@<TRIPOS>BOND
     1    25    26    1
     2    26    27   ar
     3    27    28   ar
     4    28    29   ar
     5    29    30   ar
     6    30    19    1
     7    19    20   ar
     8    20    21   ar
     9    21    22   ar
    10    22    18    1
    11    18    17    1
    12    17     1    1
    13     1     2    2
    14     1     3   am
    15     3     5    1
    16     5     6   ar
    17     6     7   ar
    18     7     8   ar
    19     8    11    1
    20    11    12   ar
    21    12    13   ar
    22    13    14   ar
    23    14    15   ar
    24    15    16   ar
    25     8     9   ar
    26     9    10   ar
    27    22    23   ar
    28    23    24   ar
    29    30    26   ar
    30    24    19   ar
    31    10     5   ar
    32    16    11   ar
    33     3     4    1
@<TRIPOS>MOLECULE
*****
 30 33 0 0 0
SMALL
GASTEIGER

@<TRIPOS>ATOM
      1 C           0.6206    3.4771   20.6901 C.2     1  UNL1        0.2707
      2 O           1.8768    3.8492   21.4205 O.2     1  UNL1       -0.2707
      3 N          -0.5271    2.8637   21.4362 N.am    1  UNL1       -0.2809
      4 H          -1.3516    2.6195   20.9568 H       1  UNL1        0.1550
      5 C          -0.4185    2.6225   22.9126 C.ar    1  UNL1        0.0504
      6 C          -1.2293    3.4463   23.8688 C.ar    1  UNL1        0.0147
      7 C          -1.1208    3.2051   25.3452 C.ar    1  UNL1        0.0013
      8 C          -0.2015    2.1401   25.8656 C.ar    1  UNL1        0.0001
      9 C           0.6092    1.3164   24.9096 C.ar    1  UNL1        0.0013
     10 C           0.5007    1.5576   23.4330 C.ar    1  UNL1        0.0147
     11 C          -0.0930    1.8989   27.3421 C.ar    1  UNL1        0.0000
     12 C           0.8375    2.7331   28.1720 C.ar    1  UNL1        0.0000
     13 C           0.9460    2.4918   29.6484 C.ar    1  UNL1        0.0000
     14 C           0.1242    1.4165   30.2951 C.ar    1  UNL1        0.0000
     15 C          -0.8062    0.5824   29.4653 C.ar    1  UNL1        0.0000
     16 C          -0.9148    0.8236   27.9888 C.ar    1  UNL1        0.0000
     17 C           0.5121    3.7183   19.2136 C.3     1  UNL1        0.2897
     18 O           0.6584    2.5747   18.2540 O.3     1  UNL1       -0.4656
     19 C           2.7756   -1.1828   19.5379 C.ar    1  UNL1        0.0175
     20 C           3.4674   -0.2024   18.6378 C.ar    1  UNL1        0.0046
     21 C           2.7617    1.0500   18.2098 C.ar    1  UNL1        0.0370
     22 C           1.3642    1.3221   18.6820 C.ar    1  UNL1        0.1393
     23 C           0.6724    0.3418   19.5821 C.ar    1  UNL1        0.0370
     24 C           1.3781   -0.9107   20.0101 C.ar    1  UNL1        0.0046
     25 C           4.1481   -1.7114   22.4511 C.3     1  UNL1        0.1537
     26 N           4.1122   -2.6783   21.3049 N.ar    1  UNL1       -0.2488
     27 N           4.7008   -4.0580   21.2965 N.ar    1  UNL1       -0.1676
     28 C           4.4338   -4.6678   19.9523 C.ar    1  UNL1        0.1217
     29 C           3.6801   -3.6649   19.1299 C.ar    1  UNL1        0.0412
     30 C           3.4813   -2.4354   19.9659 C.ar    1  UNL1        0.0795
@<TRIPOS>BOND
     1    25    26    1
     2    26    27   ar
     3    27    28   ar
     4    28    29   ar
     5    29    30   ar
     6    30    19    1
     7    19    20   ar
     8    20    21   ar
     9    21    22   ar
    10    22    18    1
    11    18    17    1
    12    17     1    1
    13     1     2    2
    14     1     3   am
    15     3     5    1
    16     5     6   ar
    17     6     7   ar
    18     7     8   ar
    19     8    11    1
    20    11    12   ar
    21    12    13   ar
    22    13    14   ar
    23    14    15   ar
    24    15    16   ar
    25     8     9   ar
    26     9    10   ar
    27    22    23   ar
    28    23    24   ar
    29    30    26   ar
    30    24    19   ar
    31    10     5   ar
    32    16    11   ar
    33     3     4    1
