@<TRIPOS>MOLECULE
*****
 40 43 0 0 0
SMALL
GASTEIGER

@<TRIPOS>ATOM
      1 C           8.1363   -1.9151   19.1654 C.3     1  UNL1        0.0518
      2 C           7.1656   -1.8206   20.3050 C.ar    1  UNL1        0.0581
      3 N           7.5432   -2.3478   21.6576 N.ar    1  UNL1       -0.2456
      4 C           6.5725   -2.2533   22.7972 C.ar    1  UNL1        0.1300
      5 C           5.2242   -1.6316   22.5843 C.ar    1  UNL1        0.0001
      6 C           4.2535   -1.5370   23.7240 C.3     1  UNL1        0.0328
      7 C           4.8466   -1.1043   21.2318 C.ar    1  UNL1       -0.0029
      8 C           5.8173   -1.1988   20.0921 C.ar    1  UNL1        0.0232
      9 C           3.4982   -0.4825   21.0188 C.ar    1  UNL1       -0.0030
     10 C           2.3778   -1.2989   20.4459 C.ar    1  UNL1        0.0029
     11 C           1.0294   -0.6771   20.2329 C.ar    1  UNL1        0.0382
     12 C           0.8014    0.7610   20.5930 C.ar    1  UNL1        0.1515
     13 C           1.9218    1.5774   21.1660 C.ar    1  UNL1        0.0784
     14 C           3.2702    0.9556   21.3789 C.ar    1  UNL1       -0.0056
     15 C           4.3906    1.7720   21.9520 C.3     1  UNL1        0.0324
     16 N           1.6938    3.0156   21.5261 N.pl3   1  UNL1       -0.3003
     17 C           2.8142    3.8320   22.0991 C.3     1  UNL1        0.1124
     18 C           0.3454    3.6374   21.3132 C.3     1  UNL1        0.1386
     19 C          -0.7749    2.8210   20.7402 C.3     1  UNL1        0.2268
     20 O          -0.5469    1.3828   20.3801 O.3     1  UNL1       -0.4724
     21 C           6.9502   -2.7806   24.1498 C.2     1  UNL1        0.2632
     22 O           8.0136   -2.0921   24.9530 O.2     1  UNL1       -0.2685
     23 N           6.2645   -3.9963   24.6991 N.am    1  UNL1       -0.3013
     24 H           5.5665   -4.4482   24.1719 H       1  UNL1        0.1497
     25 C           6.6421   -4.5236   26.0516 C.3     1  UNL1        0.0719
     26 C           7.3165   -5.8577   26.1750 C.3     1  UNL1        0.0196
     27 C           7.6942   -6.3850   27.5275 C.3     1  UNL1        0.0017
     28 C           7.3974   -5.5781   28.7567 C.3     1  UNL1        0.0001
     29 C           7.7750   -6.1054   30.1092 C.3     1  UNL1        0.0000
     30 C           6.7230   -4.2440   28.6333 C.3     1  UNL1        0.0017
     31 C           6.3453   -3.7167   27.2807 C.3     1  UNL1        0.0196
     32 C           5.4396   -0.6716   18.7396 C.3     1  UNL1        0.1744
     33 C           4.8655   -1.5965   17.7076 C.2     1  UNL1        0.0816
     34 O           3.9921   -1.0527   16.6159 O.co2   1  UNL1       -0.5464
     35 O           5.1646   -3.0651   17.7672 O.co2   1  UNL1       -0.5464
     36 O           5.6360    0.7805   18.4190 O.3     1  UNL1       -0.3510
     37 C           7.0102    1.3041   18.1231 C.3     1  UNL1        0.0938
     38 C           7.1036    1.8475   19.5181 C.3     1  UNL1        0.0297
     39 C           6.9169    0.7607   16.7282 C.3     1  UNL1        0.0297
     40 C           8.3844    1.8276   17.8272 C.3     1  UNL1        0.0297
@<TRIPOS>UNITY_ATOM_ATTR
34 1
charge -1
@<TRIPOS>BOND
     1     1     2    1
     2     2     3   ar
     3     3     4   ar
     4     4    21    1
     5    21    22    2
     6    21    23   am
     7    25    23    1
     8    25    26    1
     9    26    27    1
    10    27    28    1
    11    28    29    1
    12    28    30    1
    13    30    31    1
    14     4     5   ar
    15     5     6    1
    16     5     7   ar
    17     7     9    1
    18     9    10   ar
    19    10    11   ar
    20    11    12   ar
    21    12    13   ar
    22    13    14   ar
    23    14    15    1
    24    13    16    1
    25    16    17    1
    26    16    18    1
    27    18    19    1
    28    19    20    1
    29     7     8   ar
    30     8    32    1
    31    32    36    1
    32    36    37    1
    33    37    38    1
    34    37    39    1
    35    37    40    1
    36    32    33    1
    37    33    34   ar
    38    33    35   ar
    39     8     2   ar
    40    31    25    1
    41    14     9   ar
    42    20    12    1
    43    23    24    1
@<TRIPOS>MOLECULE
*****
 40 43 0 0 0
SMALL
GASTEIGER

@<TRIPOS>ATOM
      1 C           0.6985    1.3688   24.4570 C.3     1  UNL1        0.0518
      2 C           0.5250    1.6921   23.0025 C.ar    1  UNL1        0.0581
      3 N          -0.7012    2.4200   22.5371 N.ar    1  UNL1       -0.2456
      4 C          -0.8747    2.7433   21.0827 C.ar    1  UNL1        0.1300
      5 C           0.1779    2.3387   20.0937 C.ar    1  UNL1        0.0001
      6 C           0.0044    2.6620   18.6392 C.3     1  UNL1        0.0328
      7 C           1.4041    1.6108   20.5591 C.ar    1  UNL1       -0.0029
      8 C           1.5776    1.2875   22.0135 C.ar    1  UNL1        0.0232
      9 C           2.4568    1.2062   19.5701 C.ar    1  UNL1       -0.0030
     10 C           2.4420   -0.1732   18.9811 C.ar    1  UNL1        0.0029
     11 C           3.4947   -0.5778   17.9920 C.ar    1  UNL1        0.0382
     12 C           4.5623    0.3971   17.5921 C.ar    1  UNL1        0.1515
     13 C           4.5771    1.7765   18.1811 C.ar    1  UNL1        0.0784
     14 C           3.5244    2.1811   19.1701 C.ar    1  UNL1       -0.0056
     15 C           3.5392    3.5606   19.7591 C.3     1  UNL1        0.0324
     16 N           5.6446    2.7514   17.7811 N.pl3   1  UNL1       -0.3003
     17 C           5.6595    4.1308   18.3701 C.3     1  UNL1        0.1124
     18 C           6.6974    2.3468   16.7921 C.3     1  UNL1        0.1386
     19 C           6.6825    0.9674   16.2031 C.3     1  UNL1        0.2268
     20 O           5.6150   -0.0075   16.6031 O.3     1  UNL1       -0.4724
     21 C          -2.1010    3.4712   20.6173 C.2     1  UNL1        0.2632
     22 O          -2.0042    4.9049   20.1872 O.2     1  UNL1       -0.2685
     23 N          -3.4240    2.7653   20.5820 N.am    1  UNL1       -0.3013
     24 H          -3.4876    1.8243   20.8644 H       1  UNL1        0.1497
     25 C          -4.6503    3.4931   20.1167 C.3     1  UNL1        0.0719
     26 C          -5.5809    4.1109   21.1178 C.3     1  UNL1        0.0196
     27 C          -6.8072    4.8387   20.6524 C.3     1  UNL1        0.0017
     28 C          -7.1028    4.9488   19.1859 C.3     1  UNL1        0.0001
     29 C          -8.3290    5.6766   18.7205 C.3     1  UNL1        0.0000
     30 C          -6.1721    4.3310   18.1848 C.3     1  UNL1        0.0017
     31 C          -4.9458    3.6031   18.6502 C.3     1  UNL1        0.0196
     32 C           2.8039    0.5596   22.4789 C.3     1  UNL1        0.1744
     33 C           4.0530    1.3248   22.8016 C.2     1  UNL1        0.0816
     34 O           4.1047    2.1964   24.0214 O.co2   1  UNL1       -0.5464
     35 O           5.2505    1.2185   21.9046 O.co2   1  UNL1       -0.5464
     36 O           2.7810   -0.9333   22.6216 O.3     1  UNL1       -0.3510
     37 C           4.0020   -1.6596   23.1031 C.3     1  UNL1        0.0938
     38 C           3.6793   -1.2667   24.5142 C.3     1  UNL1        0.0297
     39 C           4.3246   -2.0525   21.6919 C.3     1  UNL1        0.0297
     40 C           5.2229   -2.3859   23.5845 C.3     1  UNL1        0.0297
@<TRIPOS>UNITY_ATOM_ATTR
34 1
charge -1
@<TRIPOS>BOND
     1     1     2    1
     2     2     3   ar
     3     3     4   ar
     4     4    21    1
     5    21    22    2
     6    21    23   am
     7    25    23    1
     8    25    26    1
     9    26    27    1
    10    27    28    1
    11    28    29    1
    12    28    30    1
    13    30    31    1
    14     4     5   ar
    15     5     6    1
    16     5     7   ar
    17     7     9    1
    18     9    10   ar
    19    10    11   ar
    20    11    12   ar
    21    12    13   ar
    22    13    14   ar
    23    14    15    1
    24    13    16    1
    25    16    17    1
    26    16    18    1
    27    18    19    1
    28    19    20    1
    29     7     8   ar
    30     8    32    1
    31    32    36    1
    32    36    37    1
    33    37    38    1
    34    37    39    1
    35    37    40    1
    36    32    33    1
    37    33    34   ar
    38    33    35   ar
    39     8     2   ar
    40    31    25    1
    41    14     9   ar
    42    20    12    1
    43    23    24    1
@<TRIPOS>MOLECULE
*****
 40 43 0 0 0
SMALL
GASTEIGER

@<TRIPOS>ATOM
      1 C           1.8495    3.9541   33.5746 C.3     1  UNL1        0.0518
      2 C           2.6957    3.0361   34.4060 C.ar    1  UNL1        0.0581
      3 N           2.8831    3.3084   35.8691 N.ar    1  UNL1       -0.2456
      4 C           3.7293    2.3904   36.7005 C.ar    1  UNL1        0.1300
      5 C           4.3881    1.2001   36.0688 C.ar    1  UNL1        0.0001
      6 C           5.2343    0.2821   36.9002 C.3     1  UNL1        0.0328
      7 C           4.2007    0.9278   34.6057 C.ar    1  UNL1       -0.0029
      8 C           3.3545    1.8458   33.7743 C.ar    1  UNL1        0.0232
      9 C           4.8595   -0.2626   33.9740 C.ar    1  UNL1       -0.0030
     10 C           4.0909   -1.5382   33.7951 C.ar    1  UNL1        0.0029
     11 C           4.7497   -2.7286   33.1634 C.ar    1  UNL1        0.0382
     12 C           6.1771   -2.6433   32.7105 C.ar    1  UNL1        0.1515
     13 C           6.9458   -1.3676   32.8894 C.ar    1  UNL1        0.0784
     14 C           6.2870   -0.1773   33.5211 C.ar    1  UNL1       -0.0056
     15 C           7.0556    1.0984   33.7000 C.3     1  UNL1        0.0324
     16 N           8.3732   -1.2823   32.4365 N.pl3   1  UNL1       -0.3003
     17 C           9.1419   -0.0067   32.6153 C.3     1  UNL1        0.1124
     18 C           9.0320   -2.4727   31.8047 C.3     1  UNL1        0.1386
     19 C           8.2634   -3.7483   31.6259 C.3     1  UNL1        0.2268
     20 O           6.8359   -3.8336   32.0788 O.3     1  UNL1       -0.4724
     21 C           3.9167    2.6628   38.1637 C.2     1  UNL1        0.2632
     22 O           3.1781    1.8431   39.1798 O.2     1  UNL1       -0.2685
     23 N           4.8427    3.7549   38.6106 N.am    1  UNL1       -0.3013
     24 H           5.3275    4.2929   37.9437 H       1  UNL1        0.1497
     25 C           5.0302    4.0273   40.0737 C.3     1  UNL1        0.0719
     26 C           6.1877    3.4181   40.8078 C.3     1  UNL1        0.0196
     27 C           6.3751    3.6905   42.2709 C.3     1  UNL1        0.0017
     28 C           5.4050    4.5722   42.9999 C.3     1  UNL1        0.0001
     29 C           5.5924    4.8446   44.4630 C.3     1  UNL1        0.0000
     30 C           4.2474    5.1815   42.2658 C.3     1  UNL1        0.0017
     31 C           4.0600    4.9090   40.8027 C.3     1  UNL1        0.0196
     32 C           3.1671    1.5734   32.3112 C.3     1  UNL1        0.1744
     33 C           4.1141    2.1667   31.3105 C.2     1  UNL1        0.0816
     34 O           3.9800    3.6070   30.9135 O.co2   1  UNL1       -0.5464
     35 O           5.1950    1.3198   30.7070 O.co2   1  UNL1       -0.5464
     36 O           2.0328    0.7077   31.8487 O.3     1  UNL1       -0.3510
     37 C           1.6642    0.6676   30.3952 C.3     1  UNL1        0.0938
     38 C           0.8960    1.9461   30.5548 C.3     1  UNL1        0.0297
     39 C           2.4323   -0.6108   30.2356 C.3     1  UNL1        0.0297
     40 C           1.2955    0.6276   28.9418 C.3     1  UNL1        0.0297
@<TRIPOS>UNITY_ATOM_ATTR
34 1
charge -1
@<TRIPOS>BOND
     1     1     2    1
     2     2     3   ar
     3     3     4   ar
     4     4    21    1
     5    21    22    2
     6    21    23   am
     7    25    23    1
     8    25    26    1
     9    26    27    1
    10    27    28    1
    11    28    29    1
    12    28    30    1
    13    30    31    1
    14     4     5   ar
    15     5     6    1
    16     5     7   ar
    17     7     9    1
    18     9    10   ar
    19    10    11   ar
    20    11    12   ar
    21    12    13   ar
    22    13    14   ar
    23    14    15    1
    24    13    16    1
    25    16    17    1
    26    16    18    1
    27    18    19    1
    28    19    20    1
    29     7     8   ar
    30     8    32    1
    31    32    36    1
    32    36    37    1
    33    37    38    1
    34    37    39    1
    35    37    40    1
    36    32    33    1
    37    33    34   ar
    38    33    35   ar
    39     8     2   ar
    40    31    25    1
    41    14     9   ar
    42    20    12    1
    43    23    24    1
@<TRIPOS>MOLECULE
*****
 40 43 0 0 0
SMALL
GASTEIGER

@<TRIPOS>ATOM
      1 C           3.1155    1.2152   27.3691 C.3     1  UNL1        0.0518
      2 C           4.0356    0.2546   28.0623 C.ar    1  UNL1        0.0581
      3 N           4.8644   -0.7028   27.2583 N.ar    1  UNL1       -0.2456
      4 C           5.7846   -1.6634   27.9515 C.ar    1  UNL1        0.1300
      5 C           5.8760   -1.6666   29.4486 C.ar    1  UNL1        0.0001
      6 C           6.7961   -2.6272   30.1418 C.3     1  UNL1        0.0328
      7 C           5.0472   -0.7092   30.2526 C.ar    1  UNL1       -0.0029
      8 C           4.1271    0.2514   29.5594 C.ar    1  UNL1        0.0232
      9 C           5.1386   -0.7124   31.7499 C.ar    1  UNL1       -0.0030
     10 C           4.2054   -1.5658   32.5564 C.ar    1  UNL1        0.0029
     11 C           4.2968   -1.5690   34.0537 C.ar    1  UNL1        0.0382
     12 C           5.3214   -0.7186   34.7443 C.ar    1  UNL1        0.1515
     13 C           6.2547    0.1349   33.9377 C.ar    1  UNL1        0.0784
     14 C           6.1633    0.1380   32.4405 C.ar    1  UNL1       -0.0056
     15 C           7.0965    0.9916   31.6339 C.3     1  UNL1        0.0324
     16 N           7.2793    0.9853   34.6283 N.pl3   1  UNL1       -0.3003
     17 C           8.2126    1.8388   33.8217 C.3     1  UNL1        0.1124
     18 C           7.3707    0.9821   36.1256 C.3     1  UNL1        0.1386
     19 C           6.4375    0.1286   36.9321 C.3     1  UNL1        0.2268
     20 O           5.4129   -0.7218   36.2415 O.3     1  UNL1       -0.4724
     21 C           6.6133   -2.6209   27.1474 C.2     1  UNL1        0.2632
     22 O           8.0613   -2.3260   26.8895 O.2     1  UNL1       -0.2685
     23 N           5.9941   -3.8732   26.6012 N.am    1  UNL1       -0.3013
     24 H           5.0438   -4.0667   26.7705 H       1  UNL1        0.1497
     25 C           6.8228   -4.8306   25.7972 C.3     1  UNL1        0.0719
     26 C           7.1757   -4.5065   24.3757 C.3     1  UNL1        0.0196
     27 C           8.0044   -5.4640   23.5717 C.3     1  UNL1        0.0017
     28 C           8.4802   -6.7456   24.1891 C.3     1  UNL1        0.0001
     29 C           9.3089   -7.7030   23.3850 C.3     1  UNL1        0.0000
     30 C           8.1273   -7.0697   25.6105 C.3     1  UNL1        0.0017
     31 C           7.2986   -6.1122   26.4145 C.3     1  UNL1        0.0196
     32 C           3.2983    1.2089   30.3635 C.3     1  UNL1        0.1744
     33 C           1.9087    0.8296   30.7821 C.2     1  UNL1        0.0816
     34 O           1.2757    1.4928   31.9693 O.co2   1  UNL1       -0.5464
     35 O           1.1522   -0.2129   30.0135 O.co2   1  UNL1       -0.5464
     36 O           3.8591    2.5456   30.7490 O.3     1  UNL1       -0.3510
     37 C           4.0004    3.6255   29.7175 C.3     1  UNL1        0.0938
     38 C           5.4702    3.3418   29.6217 C.3     1  UNL1        0.0297
     39 C           2.5306    3.9091   29.8132 C.3     1  UNL1        0.0297
     40 C           4.1416    4.7053   28.6860 C.3     1  UNL1        0.0297
@<TRIPOS>UNITY_ATOM_ATTR
34 1
charge -1
@<TRIPOS>BOND
     1     1     2    1
     2     2     3   ar
     3     3     4   ar
     4     4    21    1
     5    21    22    2
     6    21    23   am
     7    25    23    1
     8    25    26    1
     9    26    27    1
    10    27    28    1
    11    28    29    1
    12    28    30    1
    13    30    31    1
    14     4     5   ar
    15     5     6    1
    16     5     7   ar
    17     7     9    1
    18     9    10   ar
    19    10    11   ar
    20    11    12   ar
    21    12    13   ar
    22    13    14   ar
    23    14    15    1
    24    13    16    1
    25    16    17    1
    26    16    18    1
    27    18    19    1
    28    19    20    1
    29     7     8   ar
    30     8    32    1
    31    32    36    1
    32    36    37    1
    33    37    38    1
    34    37    39    1
    35    37    40    1
    36    32    33    1
    37    33    34   ar
    38    33    35   ar
    39     8     2   ar
    40    31    25    1
    41    14     9   ar
    42    20    12    1
    43    23    24    1
@<TRIPOS>MOLECULE
*****
 40 43 0 0 0
SMALL
GASTEIGER

@<TRIPOS>ATOM
      1 C           2.8528    0.1230   18.3954 C.3     1  UNL1        0.0518
      2 C           3.0893   -0.2425   19.8308 C.ar    1  UNL1        0.0581
      3 N           3.8981   -1.4589   20.1716 N.ar    1  UNL1       -0.2456
      4 C           4.1346   -1.8243   21.6071 C.ar    1  UNL1        0.1300
      5 C           3.5622   -0.9734   22.7017 C.ar    1  UNL1        0.0001
      6 C           3.7987   -1.3389   24.1372 C.3     1  UNL1        0.0328
      7 C           2.7534    0.2429   22.3609 C.ar    1  UNL1       -0.0029
      8 C           2.5169    0.6084   20.9255 C.ar    1  UNL1        0.0232
      9 C           2.1809    1.0939   23.4556 C.ar    1  UNL1       -0.0030
     10 C           0.7748    0.8658   23.9254 C.ar    1  UNL1        0.0029
     11 C           0.2024    1.7168   25.0200 C.ar    1  UNL1        0.0382
     12 C           1.0362    2.7959   25.6449 C.ar    1  UNL1        0.1515
     13 C           2.4424    3.0240   25.1750 C.ar    1  UNL1        0.0784
     14 C           3.0147    2.1730   24.0804 C.ar    1  UNL1       -0.0056
     15 C           4.4209    2.4011   23.6106 C.3     1  UNL1        0.0324
     16 N           3.2761    4.1031   25.7999 N.pl3   1  UNL1       -0.3003
     17 C           4.6823    4.3312   25.3301 C.3     1  UNL1        0.1124
     18 C           2.7037    4.9540   26.8945 C.3     1  UNL1        0.1386
     19 C           1.2976    4.7259   27.3643 C.3     1  UNL1        0.2268
     20 O           0.4638    3.6468   26.7395 O.3     1  UNL1       -0.4724
     21 C           4.9435   -3.0408   21.9478 C.2     1  UNL1        0.2632
     22 O           4.3958   -4.4086   21.6666 O.2     1  UNL1       -0.2685
     23 N           6.3000   -2.8893   22.5699 N.am    1  UNL1       -0.3013
     24 H           6.6594   -1.9915   22.7545 H       1  UNL1        0.1497
     25 C           7.1089   -4.1056   22.9107 C.3     1  UNL1        0.0719
     26 C           6.9970   -4.7232   24.2730 C.3     1  UNL1        0.0196
     27 C           7.8059   -5.9396   24.6138 C.3     1  UNL1        0.0017
     28 C           8.7267   -6.5384   23.5922 C.3     1  UNL1        0.0001
     29 C           9.5356   -7.7547   23.9329 C.3     1  UNL1        0.0000
     30 C           8.8385   -5.9208   22.2298 C.3     1  UNL1        0.0017
     31 C           8.0296   -4.7044   21.8890 C.3     1  UNL1        0.0196
     32 C           1.7080    1.8248   20.5847 C.3     1  UNL1        0.1744
     33 C           0.2269    1.7071   20.3787 C.2     1  UNL1        0.0816
     34 O          -0.4491    0.3775   20.5382 O.co2   1  UNL1       -0.5464
     35 O          -0.5782    2.9188   20.0133 O.co2   1  UNL1       -0.5464
     36 O           2.3802    3.1589   20.4499 O.3     1  UNL1       -0.3510
     37 C           3.3261    3.4108   19.3132 C.3     1  UNL1        0.0938
     38 C           2.1626    3.6634   18.4009 C.3     1  UNL1        0.0297
     39 C           4.4896    3.1581   20.2254 C.3     1  UNL1        0.0297
     40 C           4.2719    3.6626   18.1765 C.3     1  UNL1        0.0297
@<TRIPOS>UNITY_ATOM_ATTR
34 1
charge -1
@<TRIPOS>BOND
     1     1     2    1
     2     2     3   ar
     3     3     4   ar
     4     4    21    1
     5    21    22    2
     6    21    23   am
     7    25    23    1
     8    25    26    1
     9    26    27    1
    10    27    28    1
    11    28    29    1
    12    28    30    1
    13    30    31    1
    14     4     5   ar
    15     5     6    1
    16     5     7   ar
    17     7     9    1
    18     9    10   ar
    19    10    11   ar
    20    11    12   ar
    21    12    13   ar
    22    13    14   ar
    23    14    15    1
    24    13    16    1
    25    16    17    1
    26    16    18    1
    27    18    19    1
    28    19    20    1
    29     7     8   ar
    30     8    32    1
    31    32    36    1
    32    36    37    1
    33    37    38    1
    34    37    39    1
    35    37    40    1
    36    32    33    1
    37    33    34   ar
    38    33    35   ar
    39     8     2   ar
    40    31    25    1
    41    14     9   ar
    42    20    12    1
    43    23    24    1
@<TRIPOS>MOLECULE
*****
 40 43 0 0 0
SMALL
GASTEIGER

@<TRIPOS>ATOM
      1 C           7.5875   -1.8581   20.3841 C.3     1  UNL1        0.0518
      2 C           6.5923   -1.4433   21.4269 C.ar    1  UNL1        0.0581
      3 N           6.8936   -1.6612   22.8800 N.ar    1  UNL1       -0.2456
      4 C           5.8984   -1.2464   23.9228 C.ar    1  UNL1        0.1300
      5 C           4.6018   -0.6137   23.5125 C.ar    1  UNL1        0.0001
      6 C           3.6065   -0.1989   24.5553 C.3     1  UNL1        0.0328
      7 C           4.3004   -0.3958   22.0593 C.ar    1  UNL1       -0.0029
      8 C           5.2957   -0.8106   21.0165 C.ar    1  UNL1        0.0232
      9 C           3.0038    0.2370   21.6489 C.ar    1  UNL1       -0.0030
     10 C           1.8361   -0.6244   21.2687 C.ar    1  UNL1        0.0029
     11 C           0.5395    0.0084   20.8583 C.ar    1  UNL1        0.0382
     12 C           0.4105    1.5025   20.8282 C.ar    1  UNL1        0.1515
     13 C           1.5782    2.3639   21.2085 C.ar    1  UNL1        0.0784
     14 C           2.8748    1.7312   21.6188 C.ar    1  UNL1       -0.0056
     15 C           4.0425    2.5925   21.9991 C.3     1  UNL1        0.0324
     16 N           1.4493    3.8581   21.1784 N.pl3   1  UNL1       -0.3003
     17 C           2.6169    4.7194   21.5586 C.3     1  UNL1        0.1124
     18 C           0.1526    4.4908   20.7680 C.3     1  UNL1        0.1386
     19 C          -1.0150    3.6295   20.3877 C.3     1  UNL1        0.2268
     20 O          -0.8860    2.1353   20.4178 O.3     1  UNL1       -0.4724
     21 C           6.1998   -1.4644   25.3760 C.2     1  UNL1        0.2632
     22 O           7.1271   -0.5321   26.0977 O.2     1  UNL1       -0.2685
     23 N           5.5739   -2.6147   26.1074 N.am    1  UNL1       -0.3013
     24 H           4.9653   -3.2266   25.6338 H       1  UNL1        0.1497
     25 C           5.8753   -2.8327   27.5606 C.3     1  UNL1        0.0719
     26 C           5.5362   -1.7709   28.5644 C.3     1  UNL1        0.0196
     27 C           5.8375   -1.9889   30.0175 C.3     1  UNL1        0.0017
     28 C           6.4781   -3.2688   30.4669 C.3     1  UNL1        0.0001
     29 C           6.7794   -3.4868   31.9200 C.3     1  UNL1        0.0000
     30 C           6.8172   -4.3305   29.4631 C.3     1  UNL1        0.0017
     31 C           6.5158   -4.1125   28.0099 C.3     1  UNL1        0.0196
     32 C           4.9942   -0.5926   19.5633 C.3     1  UNL1        0.1744
     33 C           5.5264    0.6212   18.8609 C.2     1  UNL1        0.0816
     34 O           6.9794    0.7001   18.4965 O.co2   1  UNL1       -0.5464
     35 O           4.6057    1.7561   18.5228 O.co2   1  UNL1       -0.5464
     36 O           4.1607   -1.5884   18.8127 O.3     1  UNL1       -0.3510
     37 C           4.5491   -3.0373   18.8048 C.3     1  UNL1        0.0938
     38 C           3.4205   -3.3449   19.7438 C.3     1  UNL1        0.0297
     39 C           5.6776   -2.7296   17.8658 C.3     1  UNL1        0.0297
     40 C           4.9374   -4.4861   18.7969 C.3     1  UNL1        0.0297
@<TRIPOS>UNITY_ATOM_ATTR
34 1
charge -1
@<TRIPOS>BOND
     1     1     2    1
     2     2     3   ar
     3     3     4   ar
     4     4    21    1
     5    21    22    2
     6    21    23   am
     7    25    23    1
     8    25    26    1
     9    26    27    1
    10    27    28    1
    11    28    29    1
    12    28    30    1
    13    30    31    1
    14     4     5   ar
    15     5     6    1
    16     5     7   ar
    17     7     9    1
    18     9    10   ar
    19    10    11   ar
    20    11    12   ar
    21    12    13   ar
    22    13    14   ar
    23    14    15    1
    24    13    16    1
    25    16    17    1
    26    16    18    1
    27    18    19    1
    28    19    20    1
    29     7     8   ar
    30     8    32    1
    31    32    36    1
    32    36    37    1
    33    37    38    1
    34    37    39    1
    35    37    40    1
    36    32    33    1
    37    33    34   ar
    38    33    35   ar
    39     8     2   ar
    40    31    25    1
    41    14     9   ar
    42    20    12    1
    43    23    24    1
@<TRIPOS>MOLECULE
*****
 40 43 0 0 0
SMALL
GASTEIGER

@<TRIPOS>ATOM
      1 C           3.0434   -0.9140   28.3390 C.3     1  UNL1        0.0518
      2 C           2.7139    0.1026   27.2864 C.ar    1  UNL1        0.0581
      3 N           3.1276   -0.1299   25.8635 N.ar    1  UNL1       -0.2456
      4 C           2.7981    0.8867   24.8109 C.ar    1  UNL1        0.1300
      5 C           2.0549    2.1358   25.1813 C.ar    1  UNL1        0.0001
      6 C           1.7254    3.1525   24.1287 C.3     1  UNL1        0.0328
      7 C           1.6412    2.3684   26.6042 C.ar    1  UNL1       -0.0029
      8 C           1.9707    1.3518   27.6567 C.ar    1  UNL1        0.0232
      9 C           0.8979    3.6176   26.9746 C.ar    1  UNL1       -0.0030
     10 C           1.6491    4.8198   27.4646 C.ar    1  UNL1        0.0029
     11 C           0.9058    6.0690   27.8350 C.ar    1  UNL1        0.0382
     12 C          -0.5887    6.1159   27.7153 C.ar    1  UNL1        0.1515
     13 C          -1.3399    4.9135   27.2252 C.ar    1  UNL1        0.0784
     14 C          -0.5966    3.6644   26.8549 C.ar    1  UNL1       -0.0056
     15 C          -1.3478    2.4620   26.3648 C.3     1  UNL1        0.0324
     16 N          -2.8344    4.9603   27.1055 N.pl3   1  UNL1       -0.3003
     17 C          -3.5856    3.7580   26.6155 C.3     1  UNL1        0.1124
     18 C          -3.5777    6.2095   27.4759 C.3     1  UNL1        0.1386
     19 C          -2.8265    7.4118   27.9660 C.3     1  UNL1        0.2268
     20 O          -1.3320    7.3650   28.0857 O.3     1  UNL1       -0.4724
     21 C           3.2119    0.6541   23.3880 C.2     1  UNL1        0.2632
     22 O           4.5814    1.0592   22.9294 O.2     1  UNL1       -0.2685
     23 N           2.2561    0.0165   22.4237 N.am    1  UNL1       -0.3013
     24 H           1.3573   -0.2494   22.7247 H       1  UNL1        0.1497
     25 C           2.6698   -0.2161   21.0008 C.3     1  UNL1        0.0719
     26 C           2.4446    0.8504   19.9703 C.3     1  UNL1        0.0196
     27 C           2.8583    0.6178   18.5474 C.3     1  UNL1        0.0017
     28 C           3.4973   -0.6814   18.1549 C.3     1  UNL1        0.0001
     29 C           3.9110   -0.9140   16.7320 C.3     1  UNL1        0.0000
     30 C           3.7225   -1.7479   19.1853 C.3     1  UNL1        0.0017
     31 C           3.3088   -1.5152   20.6083 C.3     1  UNL1        0.0196
     32 C           1.5569    1.5844   29.0797 C.3     1  UNL1        0.1744
     33 C           0.2984    0.9607   29.6063 C.2     1  UNL1        0.0816
     34 O          -0.4477   -0.0400   28.7744 O.co2   1  UNL1       -0.5464
     35 O          -0.2140    1.3378   30.9647 O.co2   1  UNL1       -0.5464
     36 O           2.4016    2.4405   29.9760 O.3     1  UNL1       -0.3510
     37 C           3.7979    2.0150   30.3218 C.3     1  UNL1        0.0938
     38 C           4.3415    2.9667   29.2977 C.3     1  UNL1        0.0297
     39 C           3.2542    1.0634   31.3458 C.3     1  UNL1        0.0297
     40 C           5.1940    1.5895   30.6675 C.3     1  UNL1        0.0297
@<TRIPOS>UNITY_ATOM_ATTR
34 1
charge -1
@<TRIPOS>BOND
     1     1     2    1
     2     2     3   ar
     3     3     4   ar
     4     4    21    1
     5    21    22    2
     6    21    23   am
     7    25    23    1
     8    25    26    1
     9    26    27    1
    10    27    28    1
    11    28    29    1
    12    28    30    1
    13    30    31    1
    14     4     5   ar
    15     5     6    1
    16     5     7   ar
    17     7     9    1
    18     9    10   ar
    19    10    11   ar
    20    11    12   ar
    21    12    13   ar
    22    13    14   ar
    23    14    15    1
    24    13    16    1
    25    16    17    1
    26    16    18    1
    27    18    19    1
    28    19    20    1
    29     7     8   ar
    30     8    32    1
    31    32    36    1
    32    36    37    1
    33    37    38    1
    34    37    39    1
    35    37    40    1
    36    32    33    1
    37    33    34   ar
    38    33    35   ar
    39     8     2   ar
    40    31    25    1
    41    14     9   ar
    42    20    12    1
    43    23    24    1
@<TRIPOS>MOLECULE
*****
 40 43 0 0 0
SMALL
GASTEIGER

@<TRIPOS>ATOM
      1 C           6.5852   -4.1173   20.5622 C.3     1  UNL1        0.0518
      2 C           6.2774   -3.4246   21.8565 C.ar    1  UNL1        0.0581
      3 N           6.8695   -3.9319   23.1379 N.ar    1  UNL1       -0.2456
      4 C           6.5617   -3.2392   24.4323 C.ar    1  UNL1        0.1300
      5 C           5.6618   -2.0392   24.4453 C.ar    1  UNL1        0.0001
      6 C           5.3540   -1.3466   25.7397 C.3     1  UNL1        0.0328
      7 C           5.0697   -1.5319   23.1639 C.ar    1  UNL1       -0.0029
      8 C           5.3775   -2.2246   21.8695 C.ar    1  UNL1        0.0232
      9 C           4.1697   -0.3319   23.1769 C.ar    1  UNL1       -0.0030
     10 C           2.7014   -0.4983   23.4344 C.ar    1  UNL1        0.0029
     11 C           1.8015    0.7017   23.4473 C.ar    1  UNL1        0.0382
     12 C           2.3699    2.0681   23.2028 C.ar    1  UNL1        0.1515
     13 C           3.8383    2.2345   22.9453 C.ar    1  UNL1        0.0784
     14 C           4.7382    1.0345   22.9324 C.ar    1  UNL1       -0.0056
     15 C           6.2065    1.2009   22.6749 C.3     1  UNL1        0.0324
     16 N           4.4067    3.6009   22.7008 N.pl3   1  UNL1       -0.3003
     17 C           5.8750    3.7673   22.4433 C.3     1  UNL1        0.1124
     18 C           3.5068    4.8009   22.7137 C.3     1  UNL1        0.1386
     19 C           2.0385    4.6345   22.9712 C.3     1  UNL1        0.2268
     20 O           1.4700    3.2681   23.2157 O.3     1  UNL1       -0.4724
     21 C           7.1538   -3.7466   25.7138 C.2     1  UNL1        0.2632
     22 O           8.3629   -3.0779   26.2977 O.2     1  UNL1       -0.2685
     23 N           6.5368   -4.9225   26.4112 N.am    1  UNL1       -0.3013
     24 H           5.7433   -5.3613   26.0279 H       1  UNL1        0.1497
     25 C           7.1289   -5.4299   27.6926 C.3     1  UNL1        0.0719
     26 C           6.5466   -5.0048   29.0080 C.3     1  UNL1        0.0196
     27 C           7.1387   -5.5122   30.2893 C.3     1  UNL1        0.0017
     28 C           8.3132   -6.4447   30.2554 C.3     1  UNL1        0.0001
     29 C           8.9053   -6.9520   31.5368 C.3     1  UNL1        0.0000
     30 C           8.8955   -6.8697   28.9400 C.3     1  UNL1        0.0017
     31 C           8.3034   -6.3623   27.6586 C.3     1  UNL1        0.0196
     32 C           4.7853   -1.7173   20.5881 C.3     1  UNL1        0.1744
     33 C           3.4630   -2.2425   20.1133 C.2     1  UNL1        0.0816
     34 O           2.2280   -1.4029   20.2545 O.co2   1  UNL1       -0.5464
     35 O           3.3755   -3.6074   19.4973 O.co2   1  UNL1       -0.5464
     36 O           5.5155   -0.6847   19.7815 O.3     1  UNL1       -0.3510
     37 C           5.1219   -0.4298   18.3567 C.3     1  UNL1        0.0938
     38 C           5.8911   -1.6437   17.9269 C.3     1  UNL1        0.0297
     39 C           4.3527    0.7841   18.7864 C.3     1  UNL1        0.0297
     40 C           4.7283   -0.1748   16.9319 C.3     1  UNL1        0.0297
@<TRIPOS>UNITY_ATOM_ATTR
34 1
charge -1
@<TRIPOS>BOND
     1     1     2    1
     2     2     3   ar
     3     3     4   ar
     4     4    21    1
     5    21    22    2
     6    21    23   am
     7    25    23    1
     8    25    26    1
     9    26    27    1
    10    27    28    1
    11    28    29    1
    12    28    30    1
    13    30    31    1
    14     4     5   ar
    15     5     6    1
    16     5     7   ar
    17     7     9    1
    18     9    10   ar
    19    10    11   ar
    20    11    12   ar
    21    12    13   ar
    22    13    14   ar
    23    14    15    1
    24    13    16    1
    25    16    17    1
    26    16    18    1
    27    18    19    1
    28    19    20    1
    29     7     8   ar
    30     8    32    1
    31    32    36    1
    32    36    37    1
    33    37    38    1
    34    37    39    1
    35    37    40    1
    36    32    33    1
    37    33    34   ar
    38    33    35   ar
    39     8     2   ar
    40    31    25    1
    41    14     9   ar
    42    20    12    1
    43    23    24    1
@<TRIPOS>MOLECULE
*****
 40 43 0 0 0
SMALL
GASTEIGER

@<TRIPOS>ATOM
      1 C          -1.5726    3.0275   25.5733 C.3     1  UNL1        0.0518
      2 C          -1.3393    3.1574   24.0972 C.ar    1  UNL1        0.0581
      3 N          -0.2164    2.4054   23.4464 N.ar    1  UNL1       -0.2456
      4 C           0.0169    2.5353   21.9703 C.ar    1  UNL1        0.1300
      5 C          -0.8727    3.4172   21.1452 C.ar    1  UNL1        0.0001
      6 C          -0.6394    3.5471   19.6691 C.3     1  UNL1        0.0328
      7 C          -1.9955    4.1691   21.7960 C.ar    1  UNL1       -0.0029
      8 C          -2.2288    4.0392   23.2721 C.ar    1  UNL1        0.0232
      9 C          -2.8852    5.0511   20.9708 C.ar    1  UNL1       -0.0030
     10 C          -2.5473    6.5017   20.7936 C.ar    1  UNL1        0.0029
     11 C          -3.4370    7.3836   19.9684 C.ar    1  UNL1        0.0382
     12 C          -4.6644    6.8148   19.3205 C.ar    1  UNL1        0.1515
     13 C          -5.0022    5.3641   19.4978 C.ar    1  UNL1        0.0784
     14 C          -4.1126    4.4822   20.3229 C.ar    1  UNL1       -0.0056
     15 C          -4.4504    3.0315   20.5002 C.3     1  UNL1        0.0324
     16 N          -6.2297    4.7953   18.8499 N.pl3   1  UNL1       -0.3003
     17 C          -6.5675    3.3446   19.0271 C.3     1  UNL1        0.1124
     18 C          -7.1193    5.6772   18.0247 C.3     1  UNL1        0.1386
     19 C          -6.7815    7.1278   17.8475 C.3     1  UNL1        0.2268
     20 O          -5.5540    7.6966   18.4954 O.3     1  UNL1       -0.4724
     21 C           1.1398    1.7833   21.3195 C.2     1  UNL1        0.2632
     22 O           2.5563    2.2394   21.5078 O.2     1  UNL1       -0.2685
     23 N           0.8462    0.5752   20.4803 N.am    1  UNL1       -0.3013
     24 H          -0.0835    0.2758   20.3567 H       1  UNL1        0.1497
     25 C           1.9690   -0.1769   19.8294 C.3     1  UNL1        0.0719
     26 C           2.6299   -1.3124   20.5532 C.3     1  UNL1        0.0196
     27 C           3.7528   -2.0644   19.9023 C.3     1  UNL1        0.0017
     28 C           4.2148   -1.6809   18.5277 C.3     1  UNL1        0.0001
     29 C           5.3376   -2.4329   17.8768 C.3     1  UNL1        0.0000
     30 C           3.5539   -0.5454   17.8040 C.3     1  UNL1        0.0017
     31 C           2.4310    0.2067   18.4549 C.3     1  UNL1        0.0196
     32 C          -3.3518    4.7913   23.9229 C.3     1  UNL1        0.1744
     33 C          -3.1281    6.1871   24.4246 C.2     1  UNL1        0.0816
     34 O          -2.2489    6.4237   25.6168 O.co2   1  UNL1       -0.5464
     35 O          -3.7835    7.3462   23.7342 O.co2   1  UNL1       -0.5464
     36 O          -4.6983    4.1475   24.0721 O.3     1  UNL1       -0.3510
     37 C          -5.8529    4.9396   24.6103 C.3     1  UNL1        0.0938
     38 C          -5.3635    4.7030   26.0084 C.3     1  UNL1        0.0297
     39 C          -6.3423    5.1761   23.2123 C.3     1  UNL1        0.0297
     40 C          -7.0074    5.7316   25.1485 C.3     1  UNL1        0.0297
@<TRIPOS>UNITY_ATOM_ATTR
34 1
charge -1
@<TRIPOS>BOND
     1     1     2    1
     2     2     3   ar
     3     3     4   ar
     4     4    21    1
     5    21    22    2
     6    21    23   am
     7    25    23    1
     8    25    26    1
     9    26    27    1
    10    27    28    1
    11    28    29    1
    12    28    30    1
    13    30    31    1
    14     4     5   ar
    15     5     6    1
    16     5     7   ar
    17     7     9    1
    18     9    10   ar
    19    10    11   ar
    20    11    12   ar
    21    12    13   ar
    22    13    14   ar
    23    14    15    1
    24    13    16    1
    25    16    17    1
    26    16    18    1
    27    18    19    1
    28    19    20    1
    29     7     8   ar
    30     8    32    1
    31    32    36    1
    32    36    37    1
    33    37    38    1
    34    37    39    1
    35    37    40    1
    36    32    33    1
    37    33    34   ar
    38    33    35   ar
    39     8     2   ar
    40    31    25    1
    41    14     9   ar
    42    20    12    1
    43    23    24    1
