@<TRIPOS>MOLECULE
*****
 31 34 0 0 0
SMALL
GASTEIGER

@<TRIPOS>ATOM
      1 C          -7.1819  -15.3609   26.2775 C.ar    1  UNL1        0.1518
      2 C          -5.7251  -15.4241   26.6296 C.ar    1  UNL1        0.0396
      3 C          -4.7181  -15.8127   25.5881 C.ar    1  UNL1        0.0234
      4 C          -5.1677  -16.1380   24.1945 C.ar    1  UNL1        0.1268
      5 C          -6.6244  -16.0748   23.8424 C.ar    1  UNL1        0.0376
      6 C          -7.6315  -15.6862   24.8840 C.ar    1  UNL1        0.0804
      7 S          -4.1606  -16.5266   23.1530 S.O2    1  UNL1        0.0768
      8 O          -3.9909  -17.8618   23.8152 O.2     1  UNL1       -0.1497
      9 O          -4.3302  -15.1914   22.4908 O.2     1  UNL1       -0.1497
     10 N          -3.1534  -16.9151   22.1114 N.pl3   1  UNL1       -0.1838
     11 C          -1.9090  -16.0977   21.9297 C.3     1  UNL1        0.1631
     12 C          -0.9019  -16.4863   20.8882 C.3     1  UNL1        0.2287
     13 O          -1.1393  -17.6922   20.0284 O.3     1  UNL1       -0.4722
     14 C          -2.3838  -18.5096   20.2101 C.ar    1  UNL1        0.1534
     15 C          -2.6213  -19.7156   19.3502 C.ar    1  UNL1        0.0391
     16 C          -3.8657  -20.5330   19.5319 C.ar    1  UNL1        0.0146
     17 C          -4.8729  -20.1444   20.5735 C.ar    1  UNL1        0.0592
     18 CL         -6.1174  -20.9618   20.7552 Cl      1  UNL1       -0.0822
     19 C          -4.6355  -18.9385   21.4333 C.ar    1  UNL1        0.0306
     20 C          -3.3909  -18.1211   21.2516 C.ar    1  UNL1        0.1036
     21 C          -8.9038  -16.0324   28.1035 C.3     1  UNL1        0.2525
     22 O          -8.1890  -14.9723   27.3190 O.3     1  UNL1       -0.4702
     23 N          -9.0883  -15.6229   24.5320 N.pl3   1  UNL1       -0.3316
     24 H          -9.6595  -14.9235   24.9241 H       1  UNL1        0.1469
     25 C          -9.6746  -16.6253   23.5825 C.3     1  UNL1        0.0719
     26 C         -10.0993  -17.9738   24.0836 C.3     1  UNL1        0.0368
     27 C         -10.6857  -18.9762   23.1342 C.3     1  UNL1        0.0738
     28 N         -10.8473  -18.6301   21.6836 N.3     1  UNL1       -0.2714
     29 C         -11.4336  -19.6325   20.7342 C.3     1  UNL1        0.0896
     30 C         -10.4226  -17.2816   21.1825 C.3     1  UNL1        0.0738
     31 C          -9.8362  -16.2792   22.1320 C.3     1  UNL1        0.0368
@<TRIPOS>BOND
     1    21    22    1
     2    22     1    1
     3     1     2   ar
     4     2     3   ar
     5     3     4   ar
     6     4     7    1
     7     7     8    2
     8     7     9    2
     9     7    10    1
    10    10    11    1
    11    11    12    1
    12    12    13    1
    13    13    14    1
    14    14    15   ar
    15    15    16   ar
    16    16    17   ar
    17    17    18    1
    18    17    19   ar
    19    19    20   ar
    20     4     5   ar
    21     5     6   ar
    22     6    23    1
    23    23    25    1
    24    25    26    1
    25    26    27    1
    26    27    28    1
    27    28    29    1
    28    28    30    1
    29    30    31    1
    30     6     1   ar
    31    31    25    1
    32    20    10    1
    33    20    14   ar
    34    23    24    1
@<TRIPOS>MOLECULE
*****
 31 34 0 0 0
SMALL
GASTEIGER

@<TRIPOS>ATOM
      1 C           7.6071   -7.4937   25.7942 C.ar    1  UNL1        0.1518
      2 C           8.4081   -7.6640   24.5376 C.ar    1  UNL1        0.0396
      3 C           8.5254   -6.5295   23.5634 C.ar    1  UNL1        0.0234
      4 C           7.8415   -5.2246   23.8459 C.ar    1  UNL1        0.1268
      5 C           7.0404   -5.0543   25.1025 C.ar    1  UNL1        0.0376
      6 C           6.9232   -6.1889   26.0768 C.ar    1  UNL1        0.0804
      7 S           7.9588   -4.0901   22.8717 S.O2    1  UNL1        0.0768
      8 O           6.9672   -3.2996   23.6729 O.2     1  UNL1       -0.1497
      9 O           8.9503   -4.8805   22.0705 O.2     1  UNL1       -0.1497
     10 N           8.0761   -2.9555   21.8974 N.pl3   1  UNL1       -0.1838
     11 C           9.0820   -1.8676   22.1307 C.3     1  UNL1        0.1631
     12 C           9.1992   -0.7331   21.1565 C.3     1  UNL1        0.2287
     13 O           8.3105   -0.6866   19.9489 O.3     1  UNL1       -0.4722
     14 C           7.3046   -1.7745   19.7157 C.ar    1  UNL1        0.1534
     15 C           6.4159   -1.7280   18.5082 C.ar    1  UNL1        0.0391
     16 C           5.4100   -2.8159   18.2749 C.ar    1  UNL1        0.0146
     17 C           5.2927   -3.9504   19.2491 C.ar    1  UNL1        0.0592
     18 CL          4.2868   -5.0384   19.0159 Cl      1  UNL1       -0.0822
     19 C           6.1814   -3.9970   20.4567 C.ar    1  UNL1        0.0306
     20 C           7.1874   -2.9090   20.6899 C.ar    1  UNL1        0.1036
     21 C           8.6698   -9.0220   27.6068 C.3     1  UNL1        0.2525
     22 O           7.4898   -8.6282   26.7684 O.3     1  UNL1       -0.4702
     23 N           6.1221   -6.0187   27.3334 N.pl3   1  UNL1       -0.3316
     24 H           5.2061   -6.3755   27.3854 H       1  UNL1        0.1469
     25 C           6.7168   -5.3046   28.5110 C.3     1  UNL1        0.0719
     26 C           6.5352   -3.8231   28.6597 C.3     1  UNL1        0.0368
     27 C           7.1299   -3.1091   29.8372 C.3     1  UNL1        0.0738
     28 N           7.9062   -3.8766   30.8660 N.3     1  UNL1       -0.2714
     29 C           8.5008   -3.1625   32.0435 C.3     1  UNL1        0.0896
     30 C           8.0878   -5.3581   30.7173 C.3     1  UNL1        0.0738
     31 C           7.4931   -6.0721   29.5397 C.3     1  UNL1        0.0368
@<TRIPOS>BOND
     1    21    22    1
     2    22     1    1
     3     1     2   ar
     4     2     3   ar
     5     3     4   ar
     6     4     7    1
     7     7     8    2
     8     7     9    2
     9     7    10    1
    10    10    11    1
    11    11    12    1
    12    12    13    1
    13    13    14    1
    14    14    15   ar
    15    15    16   ar
    16    16    17   ar
    17    17    18    1
    18    17    19   ar
    19    19    20   ar
    20     4     5   ar
    21     5     6   ar
    22     6    23    1
    23    23    25    1
    24    25    26    1
    25    26    27    1
    26    27    28    1
    27    28    29    1
    28    28    30    1
    29    30    31    1
    30     6     1   ar
    31    31    25    1
    32    20    10    1
    33    20    14   ar
    34    23    24    1
@<TRIPOS>MOLECULE
*****
 31 34 0 0 0
SMALL
GASTEIGER

@<TRIPOS>ATOM
      1 C         -10.8513   -5.5734   17.9640 C.ar    1  UNL1        0.1518
      2 C         -10.9870   -6.7855   17.0908 C.ar    1  UNL1        0.0396
      3 C         -12.2666   -7.5681   17.0877 C.ar    1  UNL1        0.0234
      4 C         -13.4105   -7.1387   17.9579 C.ar    1  UNL1        0.1268
      5 C         -13.2748   -5.9266   18.8310 C.ar    1  UNL1        0.0376
      6 C         -11.9951   -5.1439   18.8341 C.ar    1  UNL1        0.0804
      7 S         -14.6901   -7.9213   17.9548 S.O2    1  UNL1        0.0768
      8 O         -15.0170   -7.3923   19.3198 O.2     1  UNL1       -0.1497
      9 O         -14.3633   -8.4503   16.5898 O.2     1  UNL1       -0.1497
     10 N         -15.9698   -8.7041   17.9517 N.pl3   1  UNL1       -0.1838
     11 C         -15.9831  -10.1216   18.4418 C.3     1  UNL1        0.1631
     12 C         -17.2627  -10.9043   18.4386 C.3     1  UNL1        0.2287
     13 O         -18.5290  -10.2693   17.9454 O.3     1  UNL1       -0.4722
     14 C         -18.5157   -8.8517   17.4553 C.ar    1  UNL1        0.1534
     15 C         -19.7820   -8.2168   16.9621 C.ar    1  UNL1        0.0391
     16 C         -19.7687   -6.7992   16.4720 C.ar    1  UNL1        0.0146
     17 C         -18.4891   -6.0165   16.4751 C.ar    1  UNL1        0.0592
     18 CL        -18.4758   -4.5989   15.9850 Cl      1  UNL1       -0.0822
     19 C         -17.2228   -6.6514   16.9683 C.ar    1  UNL1        0.0306
     20 C         -17.2361   -8.0691   17.4585 C.ar    1  UNL1        0.1036
     21 C          -9.1941   -3.9659   16.7724 C.3     1  UNL1        0.2525
     22 O          -9.5717   -4.7907   17.9670 O.3     1  UNL1       -0.4702
     23 N         -11.8594   -3.9318   19.7072 N.pl3   1  UNL1       -0.3316
     24 H         -11.3637   -3.9895   20.5559 H       1  UNL1        0.1469
     25 C         -12.4790   -2.6319   19.2874 C.3     1  UNL1        0.0719
     26 C         -13.9525   -2.4122   19.4625 C.3     1  UNL1        0.0368
     27 C         -14.5721   -1.1123   19.0427 C.3     1  UNL1        0.0738
     28 N         -13.7183   -0.0320   18.4477 N.3     1  UNL1       -0.2714
     29 C         -14.3379    1.2679   18.0279 C.3     1  UNL1        0.0896
     30 C         -12.2448   -0.2516   18.2726 C.3     1  UNL1        0.0738
     31 C         -11.6252   -1.5516   18.6924 C.3     1  UNL1        0.0368
@<TRIPOS>BOND
     1    21    22    1
     2    22     1    1
     3     1     2   ar
     4     2     3   ar
     5     3     4   ar
     6     4     7    1
     7     7     8    2
     8     7     9    2
     9     7    10    1
    10    10    11    1
    11    11    12    1
    12    12    13    1
    13    13    14    1
    14    14    15   ar
    15    15    16   ar
    16    16    17   ar
    17    17    18    1
    18    17    19   ar
    19    19    20   ar
    20     4     5   ar
    21     5     6   ar
    22     6    23    1
    23    23    25    1
    24    25    26    1
    25    26    27    1
    26    27    28    1
    27    28    29    1
    28    28    30    1
    29    30    31    1
    30     6     1   ar
    31    31    25    1
    32    20    10    1
    33    20    14   ar
    34    23    24    1
@<TRIPOS>MOLECULE
*****
 31 34 0 0 0
SMALL
GASTEIGER

@<TRIPOS>ATOM
      1 C         -10.5965   -6.0148   18.7661 C.ar    1  UNL1        0.1518
      2 C          -9.6517   -4.9392   18.3184 C.ar    1  UNL1        0.0396
      3 C         -10.1558   -3.5446   18.0926 C.ar    1  UNL1        0.0234
      4 C         -11.6046   -3.2256   18.3146 C.ar    1  UNL1        0.1268
      5 C         -12.5493   -4.3012   18.7623 C.ar    1  UNL1        0.0376
      6 C         -12.0452   -5.6959   18.9881 C.ar    1  UNL1        0.0804
      7 S         -12.1086   -1.8310   18.0888 S.O2    1  UNL1        0.0768
      8 O         -11.5103   -1.4031   19.3961 O.2     1  UNL1       -0.1497
      9 O         -12.7070   -2.2588   16.7816 O.2     1  UNL1       -0.1497
     10 N         -12.6127   -0.4363   17.8630 N.pl3   1  UNL1       -0.1838
     11 C         -11.7328    0.5808   17.1989 C.3     1  UNL1        0.1631
     12 C         -12.2369    1.9754   16.9731 C.3     1  UNL1        0.2287
     13 O         -13.6209    2.3528   17.4115 O.3     1  UNL1       -0.4722
     14 C         -14.5007    1.3357   18.0757 C.ar    1  UNL1        0.1534
     15 C         -15.8847    1.7131   18.5141 C.ar    1  UNL1        0.0391
     16 C         -16.7646    0.6960   19.1783 C.ar    1  UNL1        0.0146
     17 C         -16.2605   -0.6987   19.4041 C.ar    1  UNL1        0.0592
     18 CL        -17.1404   -1.7159   20.0683 Cl      1  UNL1       -0.0822
     19 C         -14.8765   -1.0761   18.9657 C.ar    1  UNL1        0.0306
     20 C         -13.9966   -0.0589   18.3015 C.ar    1  UNL1        0.1036
     21 C         -10.0557   -8.3869   17.8546 C.3     1  UNL1        0.2525
     22 O         -10.0925   -7.4094   18.9918 O.3     1  UNL1       -0.4702
     23 N         -12.9900   -6.7715   19.4358 N.pl3   1  UNL1       -0.3316
     24 H         -12.8121   -7.2683   20.2670 H       1  UNL1        0.1469
     25 C         -14.2058   -7.0903   18.6171 C.3     1  UNL1        0.0719
     26 C         -15.5643   -7.0710   19.2529 C.3     1  UNL1        0.0368
     27 C         -16.7801   -7.3898   18.4343 C.3     1  UNL1        0.0738
     28 N         -16.6374   -7.7279   16.9798 N.3     1  UNL1       -0.2714
     29 C         -17.8532   -8.0467   16.1612 C.3     1  UNL1        0.0896
     30 C         -15.2790   -7.7473   16.3440 C.3     1  UNL1        0.0738
     31 C         -14.0631   -7.4285   17.1627 C.3     1  UNL1        0.0368
@<TRIPOS>BOND
     1    21    22    1
     2    22     1    1
     3     1     2   ar
     4     2     3   ar
     5     3     4   ar
     6     4     7    1
     7     7     8    2
     8     7     9    2
     9     7    10    1
    10    10    11    1
    11    11    12    1
    12    12    13    1
    13    13    14    1
    14    14    15   ar
    15    15    16   ar
    16    16    17   ar
    17    17    18    1
    18    17    19   ar
    19    19    20   ar
    20     4     5   ar
    21     5     6   ar
    22     6    23    1
    23    23    25    1
    24    25    26    1
    25    26    27    1
    26    27    28    1
    27    28    29    1
    28    28    30    1
    29    30    31    1
    30     6     1   ar
    31    31    25    1
    32    20    10    1
    33    20    14   ar
    34    23    24    1
@<TRIPOS>MOLECULE
*****
 31 34 0 0 0
SMALL
GASTEIGER

@<TRIPOS>ATOM
      1 C         -11.7727   -6.3807   18.9748 C.ar    1  UNL1        0.1518
      2 C         -11.2853   -4.9634   19.0360 C.ar    1  UNL1        0.0396
      3 C         -12.2695   -3.8351   19.1264 C.ar    1  UNL1        0.0234
      4 C         -13.7412   -4.1241   19.1556 C.ar    1  UNL1        0.1268
      5 C         -14.2285   -5.5414   19.0944 C.ar    1  UNL1        0.0376
      6 C         -13.2442   -6.6697   19.0040 C.ar    1  UNL1        0.0804
      7 S         -14.7254   -2.9958   19.2460 S.O2    1  UNL1        0.0768
      8 O         -15.2205   -3.3172   17.8671 O.2     1  UNL1       -0.1497
      9 O         -14.2302   -2.6744   20.6249 O.2     1  UNL1       -0.1497
     10 N         -15.7096   -1.8674   19.3365 N.pl3   1  UNL1       -0.1838
     11 C         -17.0852   -2.1139   19.8812 C.3     1  UNL1        0.1631
     12 C         -18.0694   -0.9856   19.9717 C.3     1  UNL1        0.2287
     13 O         -17.6779    0.3893   19.5173 O.3     1  UNL1       -0.4722
     14 C         -16.3023    0.6358   18.9725 C.ar    1  UNL1        0.1534
     15 C         -15.9108    2.0107   18.5182 C.ar    1  UNL1        0.0391
     16 C         -14.5352    2.2573   17.9734 C.ar    1  UNL1        0.0146
     17 C         -13.5510    1.1289   17.8830 C.ar    1  UNL1        0.0592
     18 CL        -12.1753    1.3754   17.3382 Cl      1  UNL1       -0.0822
     19 C         -13.9424   -0.2460   18.3373 C.ar    1  UNL1        0.0306
     20 C         -15.3181   -0.4925   18.8821 C.ar    1  UNL1        0.1036
     21 C         -10.3639   -8.0283   17.5426 C.3     1  UNL1        0.2525
     22 O         -10.7885   -7.5090   18.8844 O.3     1  UNL1       -0.4702
     23 N         -13.7316   -8.0870   18.9428 N.pl3   1  UNL1       -0.3316
     24 H         -13.0972   -8.8311   19.0572 H       1  UNL1        0.1469
     25 C         -15.1857   -8.3706   18.7072 C.3     1  UNL1        0.0719
     26 C         -15.7556   -8.2658   17.3236 C.3     1  UNL1        0.0368
     27 C         -17.2096   -8.5494   17.0880 C.3     1  UNL1        0.0738
     28 N         -18.0936   -8.9377   18.2360 N.3     1  UNL1       -0.2714
     29 C         -19.5476   -9.2213   18.0003 C.3     1  UNL1        0.0896
     30 C         -17.5237   -9.0425   19.6195 C.3     1  UNL1        0.0738
     31 C         -16.0696   -8.7589   19.8551 C.3     1  UNL1        0.0368
@<TRIPOS>BOND
     1    21    22    1
     2    22     1    1
     3     1     2   ar
     4     2     3   ar
     5     3     4   ar
     6     4     7    1
     7     7     8    2
     8     7     9    2
     9     7    10    1
    10    10    11    1
    11    11    12    1
    12    12    13    1
    13    13    14    1
    14    14    15   ar
    15    15    16   ar
    16    16    17   ar
    17    17    18    1
    18    17    19   ar
    19    19    20   ar
    20     4     5   ar
    21     5     6   ar
    22     6    23    1
    23    23    25    1
    24    25    26    1
    25    26    27    1
    26    27    28    1
    27    28    29    1
    28    28    30    1
    29    30    31    1
    30     6     1   ar
    31    31    25    1
    32    20    10    1
    33    20    14   ar
    34    23    24    1
@<TRIPOS>MOLECULE
*****
 31 34 0 0 0
SMALL
GASTEIGER

@<TRIPOS>ATOM
      1 C          -0.0774    2.5467   23.5362 C.ar    1  UNL1        0.1518
      2 C           0.7868    1.3827   23.9214 C.ar    1  UNL1        0.0396
      3 C           1.5648    0.6464   22.8715 C.ar    1  UNL1        0.0234
      4 C           1.4786    1.0740   21.4362 C.ar    1  UNL1        0.1268
      5 C           0.6144    2.2380   21.0511 C.ar    1  UNL1        0.0376
      6 C          -0.1637    2.9743   22.1011 C.ar    1  UNL1        0.0804
      7 S           2.2566    0.3377   20.3863 S.O2    1  UNL1        0.0768
      8 O           3.4122    1.2728   20.5867 O.2     1  UNL1       -0.1497
      9 O           1.1011   -0.5974   20.1858 O.2     1  UNL1       -0.1497
     10 N           3.0347   -0.3987   19.3362 N.pl3   1  UNL1       -0.1838
     11 C           2.9660    0.0427   17.9043 C.3     1  UNL1        0.1631
     12 C           3.7440   -0.6936   16.8544 C.3     1  UNL1        0.2287
     13 O           4.5906   -1.8714   17.2364 O.3     1  UNL1       -0.4722
     14 C           4.6593   -2.3129   18.6682 C.ar    1  UNL1        0.1534
     15 C           5.5060   -3.4907   19.0502 C.ar    1  UNL1        0.0391
     16 C           5.5747   -3.9321   20.4821 C.ar    1  UNL1        0.0146
     17 C           4.7967   -3.1957   21.5321 C.ar    1  UNL1        0.0592
     18 CL          4.8654   -3.6371   22.9640 Cl      1  UNL1       -0.0822
     19 C           3.9500   -2.0179   21.1502 C.ar    1  UNL1        0.0306
     20 C           3.8813   -1.5765   19.7182 C.ar    1  UNL1        0.1036
     21 C          -1.2927    2.5718   25.8325 C.3     1  UNL1        0.2525
     22 O          -0.8555    3.2830   24.5862 O.3     1  UNL1       -0.4702
     23 N          -1.0279    4.1382   21.7159 N.pl3   1  UNL1       -0.3316
     24 H          -0.7433    5.0555   21.9323 H       1  UNL1        0.1469
     25 C          -2.3258    3.9045   21.0011 C.3     1  UNL1        0.0719
     26 C          -3.5359    3.4622   21.7691 C.3     1  UNL1        0.0368
     27 C          -4.8338    3.2285   21.0544 C.3     1  UNL1        0.0738
     28 N          -4.9215    3.4371   19.5715 N.3     1  UNL1       -0.2714
     29 C          -6.2194    3.2034   18.8567 C.3     1  UNL1        0.0896
     30 C          -3.7114    3.8794   18.8034 C.3     1  UNL1        0.0738
     31 C          -2.4135    4.1131   19.5183 C.3     1  UNL1        0.0368
@<TRIPOS>BOND
     1    21    22    1
     2    22     1    1
     3     1     2   ar
     4     2     3   ar
     5     3     4   ar
     6     4     7    1
     7     7     8    2
     8     7     9    2
     9     7    10    1
    10    10    11    1
    11    11    12    1
    12    12    13    1
    13    13    14    1
    14    14    15   ar
    15    15    16   ar
    16    16    17   ar
    17    17    18    1
    18    17    19   ar
    19    19    20   ar
    20     4     5   ar
    21     5     6   ar
    22     6    23    1
    23    23    25    1
    24    25    26    1
    25    26    27    1
    26    27    28    1
    27    28    29    1
    28    28    30    1
    29    30    31    1
    30     6     1   ar
    31    31    25    1
    32    20    10    1
    33    20    14   ar
    34    23    24    1
@<TRIPOS>MOLECULE
*****
 31 34 0 0 0
SMALL
GASTEIGER

@<TRIPOS>ATOM
      1 C           7.0081   -1.9722   18.4523 C.ar    1  UNL1        0.1518
      2 C           8.3234   -2.0357   19.1707 C.ar    1  UNL1        0.0396
      3 C           8.4263   -2.7506   20.4853 C.ar    1  UNL1        0.0234
      4 C           7.2138   -3.4021   21.0816 C.ar    1  UNL1        0.1268
      5 C           5.8985   -3.3386   20.3633 C.ar    1  UNL1        0.0376
      6 C           5.7957   -2.6236   19.0486 C.ar    1  UNL1        0.0804
      7 S           7.3166   -4.1170   22.3962 S.O2    1  UNL1        0.0768
      8 O           5.8912   -4.5650   22.2641 O.2     1  UNL1       -0.1497
      9 O           8.7421   -3.6691   22.5283 O.2     1  UNL1       -0.1497
     10 N           7.4196   -4.8320   23.7109 N.pl3   1  UNL1       -0.1838
     11 C           7.9811   -6.2217   23.7669 C.3     1  UNL1        0.1631
     12 C           8.0840   -6.9366   25.0816 C.3     1  UNL1        0.2287
     13 O           7.6253   -6.2617   26.3402 O.3     1  UNL1       -0.4722
     14 C           7.0638   -4.8720   26.2842 C.ar    1  UNL1        0.1534
     15 C           6.6051   -4.1971   27.5428 C.ar    1  UNL1        0.0391
     16 C           6.0436   -2.8073   27.4868 C.ar    1  UNL1        0.0146
     17 C           5.9407   -2.0923   26.1721 C.ar    1  UNL1        0.0592
     18 CL          5.3792   -0.7026   26.1161 Cl      1  UNL1       -0.0822
     19 C           6.3994   -2.7672   24.9135 C.ar    1  UNL1        0.0306
     20 C           6.9609   -4.1571   24.9696 C.ar    1  UNL1        0.1036
     21 C           6.7296    0.2321   17.1057 C.3     1  UNL1        0.2525
     22 O           6.9053   -1.2572   17.1377 O.3     1  UNL1       -0.4702
     23 N           4.4804   -2.5601   18.3303 N.pl3   1  UNL1       -0.3316
     24 H           4.2891   -3.1888   17.5972 H       1  UNL1        0.1469
     25 C           3.4567   -1.5388   18.7289 C.3     1  UNL1        0.0719
     26 C           2.6716   -1.7181   19.9944 C.3     1  UNL1        0.0368
     27 C           1.6479   -0.6968   20.3930 C.3     1  UNL1        0.0738
     28 N           1.4093    0.5039   19.5261 N.3     1  UNL1       -0.2714
     29 C           0.3856    1.5252   19.9248 C.3     1  UNL1        0.0896
     30 C           2.1944    0.6833   18.2606 C.3     1  UNL1        0.0738
     31 C           3.2181   -0.3381   17.8620 C.3     1  UNL1        0.0368
@<TRIPOS>BOND
     1    21    22    1
     2    22     1    1
     3     1     2   ar
     4     2     3   ar
     5     3     4   ar
     6     4     7    1
     7     7     8    2
     8     7     9    2
     9     7    10    1
    10    10    11    1
    11    11    12    1
    12    12    13    1
    13    13    14    1
    14    14    15   ar
    15    15    16   ar
    16    16    17   ar
    17    17    18    1
    18    17    19   ar
    19    19    20   ar
    20     4     5   ar
    21     5     6   ar
    22     6    23    1
    23    23    25    1
    24    25    26    1
    25    26    27    1
    26    27    28    1
    27    28    29    1
    28    28    30    1
    29    30    31    1
    30     6     1   ar
    31    31    25    1
    32    20    10    1
    33    20    14   ar
    34    23    24    1
@<TRIPOS>MOLECULE
*****
 31 34 0 0 0
SMALL
GASTEIGER

@<TRIPOS>ATOM
      1 C         -11.1164   -5.9042   18.9212 C.ar    1  UNL1        0.1518
      2 C         -11.7285   -7.2229   18.5517 C.ar    1  UNL1        0.0396
      3 C         -13.1949   -7.3106   18.2489 C.ar    1  UNL1        0.0234
      4 C         -14.0494   -6.0795   18.3154 C.ar    1  UNL1        0.1268
      5 C         -13.4374   -4.7608   18.6849 C.ar    1  UNL1        0.0376
      6 C         -11.9709   -4.6732   18.9877 C.ar    1  UNL1        0.0804
      7 S         -15.5159   -6.1672   18.0126 S.O2    1  UNL1        0.0768
      8 O         -15.2016   -6.4604   16.5755 O.2     1  UNL1       -0.1497
      9 O         -15.8302   -5.8740   19.4496 O.2     1  UNL1       -0.1497
     10 N         -16.9824   -6.2549   17.7097 N.pl3   1  UNL1       -0.1838
     11 C         -17.7446   -5.0205   17.3284 C.3     1  UNL1        0.1631
     12 C         -19.2111   -5.1083   17.0256 C.3     1  UNL1        0.2287
     13 O         -19.9154   -6.4303   17.1041 O.3     1  UNL1       -0.4722
     14 C         -19.1532   -7.6646   17.4855 C.ar    1  UNL1        0.1534
     15 C         -19.8575   -8.9867   17.5640 C.ar    1  UNL1        0.0391
     16 C         -19.0953  -10.2210   17.9453 C.ar    1  UNL1        0.0146
     17 C         -17.6288  -10.1333   18.2482 C.ar    1  UNL1        0.0592
     18 CL        -16.8666  -11.3677   18.6295 Cl      1  UNL1       -0.0822
     19 C         -16.9245   -8.8113   18.1696 C.ar    1  UNL1        0.0306
     20 C         -17.6867   -7.5769   17.7883 C.ar    1  UNL1        0.1036
     21 C          -8.8364   -7.0692   19.3617 C.3     1  UNL1        0.2525
     22 O          -9.6500   -5.8166   19.2240 O.3     1  UNL1       -0.4702
     23 N         -11.3589   -3.3545   19.3572 N.pl3   1  UNL1       -0.3316
     24 H         -10.7840   -3.2844   20.1533 H       1  UNL1        0.1469
     25 C         -11.6228   -2.1426   18.5135 C.3     1  UNL1        0.0719
     26 C         -12.7617   -1.2269   18.8517 C.3     1  UNL1        0.0368
     27 C         -13.0256   -0.0150   18.0081 C.3     1  UNL1        0.0738
     28 N         -12.1506    0.2812   16.8263 N.3     1  UNL1       -0.2714
     29 C         -12.4145    1.4931   15.9828 C.3     1  UNL1        0.0896
     30 C         -11.0116   -0.6344   16.4881 C.3     1  UNL1        0.0738
     31 C         -10.7477   -1.8464   17.3318 C.3     1  UNL1        0.0368
@<TRIPOS>BOND
     1    21    22    1
     2    22     1    1
     3     1     2   ar
     4     2     3   ar
     5     3     4   ar
     6     4     7    1
     7     7     8    2
     8     7     9    2
     9     7    10    1
    10    10    11    1
    11    11    12    1
    12    12    13    1
    13    13    14    1
    14    14    15   ar
    15    15    16   ar
    16    16    17   ar
    17    17    18    1
    18    17    19   ar
    19    19    20   ar
    20     4     5   ar
    21     5     6   ar
    22     6    23    1
    23    23    25    1
    24    25    26    1
    25    26    27    1
    26    27    28    1
    27    28    29    1
    28    28    30    1
    29    30    31    1
    30     6     1   ar
    31    31    25    1
    32    20    10    1
    33    20    14   ar
    34    23    24    1
@<TRIPOS>MOLECULE
*****
 31 34 0 0 0
SMALL
GASTEIGER

@<TRIPOS>ATOM
      1 C          -6.6322  -15.4645   25.7518 C.ar    1  UNL1        0.1518
      2 C          -8.1284  -15.5546   25.8087 C.ar    1  UNL1        0.0396
      3 C          -8.8867  -16.1682   24.6692 C.ar    1  UNL1        0.0234
      4 C          -8.1488  -16.6917   23.4727 C.ar    1  UNL1        0.1268
      5 C          -6.6526  -16.6015   23.4158 C.ar    1  UNL1        0.0376
      6 C          -5.8943  -15.9879   24.5554 C.ar    1  UNL1        0.0804
      7 S          -8.9071  -17.3052   22.3332 S.O2    1  UNL1        0.0768
      8 O          -8.3014  -16.3064   21.3923 O.2     1  UNL1       -0.1497
      9 O          -9.5128  -18.3041   23.2742 O.2     1  UNL1       -0.1497
     10 N          -9.6655  -17.9189   21.1937 N.pl3   1  UNL1       -0.1838
     11 C         -11.0506  -17.4420   20.8715 C.3     1  UNL1        0.1631
     12 C         -11.8089  -18.0557   19.7321 C.3     1  UNL1        0.2287
     13 O         -11.1820  -19.1461   18.9148 O.3     1  UNL1       -0.4722
     14 C          -9.7968  -19.6229   19.2370 C.ar    1  UNL1        0.1534
     15 C          -9.1699  -20.7134   18.4197 C.ar    1  UNL1        0.0391
     16 C          -7.7847  -21.1902   18.7419 C.ar    1  UNL1        0.0146
     17 C          -7.0264  -20.5765   19.8814 C.ar    1  UNL1        0.0592
     18 CL         -5.6412  -21.0534   20.2036 Cl      1  UNL1       -0.0822
     19 C          -7.6533  -19.4861   20.6987 C.ar    1  UNL1        0.0306
     20 C          -9.0385  -19.0093   20.3765 C.ar    1  UNL1        0.1036
     21 C          -6.6150  -14.2701   28.0590 C.3     1  UNL1        0.2525
     22 O          -5.8739  -14.8509   26.8913 O.3     1  UNL1       -0.4702
     23 N          -4.3981  -15.8978   24.4985 N.pl3   1  UNL1       -0.3316
     24 H          -3.9102  -15.3770   25.1766 H       1  UNL1        0.1469
     25 C          -3.6453  -16.6012   23.4082 C.3     1  UNL1        0.0719
     26 C          -2.8856  -15.8062   22.3880 C.3     1  UNL1        0.0368
     27 C          -2.1328  -16.5095   21.2978 C.3     1  UNL1        0.0738
     28 N          -2.1397  -18.0079   21.2277 N.3     1  UNL1       -0.2714
     29 C          -1.3870  -18.7112   20.1375 C.3     1  UNL1        0.0896
     30 C          -2.8995  -18.8029   22.2479 C.3     1  UNL1        0.0738
     31 C          -3.6523  -18.0995   23.3381 C.3     1  UNL1        0.0368
@<TRIPOS>BOND
     1    21    22    1
     2    22     1    1
     3     1     2   ar
     4     2     3   ar
     5     3     4   ar
     6     4     7    1
     7     7     8    2
     8     7     9    2
     9     7    10    1
    10    10    11    1
    11    11    12    1
    12    12    13    1
    13    13    14    1
    14    14    15   ar
    15    15    16   ar
    16    16    17   ar
    17    17    18    1
    18    17    19   ar
    19    19    20   ar
    20     4     5   ar
    21     5     6   ar
    22     6    23    1
    23    23    25    1
    24    25    26    1
    25    26    27    1
    26    27    28    1
    27    28    29    1
    28    28    30    1
    29    30    31    1
    30     6     1   ar
    31    31    25    1
    32    20    10    1
    33    20    14   ar
    34    23    24    1
