@<TRIPOS>MOLECULE
*****
 32 36 0 0 0
SMALL
GASTEIGER

@<TRIPOS>ATOM
      1 N          -7.9223  -19.6420   21.4646 N.3     1  UNL1       -0.2667
      2 C          -8.5710  -19.2518   22.7596 C.3     1  UNL1        0.0978
      3 C          -9.3830  -20.2550   23.5239 C.3     1  UNL1        0.0224
      4 C         -10.0317  -19.8647   24.8189 C.3     1  UNL1        0.0065
      5 C          -9.8684  -18.4713   25.3495 C.3     1  UNL1        0.0277
      6 C          -9.0563  -17.4681   24.5852 C.ar    1  UNL1       -0.0073
      7 C          -8.8930  -16.0746   25.1158 C.ar    1  UNL1       -0.0015
      8 C          -8.0810  -15.0714   24.3514 C.ar    1  UNL1        0.0203
      9 C          -7.4323  -15.4616   23.0565 C.ar    1  UNL1        0.0985
     10 N          -7.5957  -16.8551   22.5259 N.ar    1  UNL1       -0.2471
     11 C          -8.4077  -17.8583   23.2902 C.ar    1  UNL1        0.0695
     12 C          -6.5803  -20.3121   21.4700 C.3     1  UNL1        0.0886
     13 C          -0.6958  -16.9688   20.2679 C.ar    1  UNL1       -0.0003
     14 C          -1.0678  -17.7615   19.0500 C.ar    1  UNL1       -0.0003
     15 C          -2.3191  -18.5887   19.0469 C.ar    1  UNL1       -0.0045
     16 C          -3.1984  -18.6232   20.2616 C.ar    1  UNL1       -0.0234
     17 C          -2.8264  -17.8306   21.4795 C.ar    1  UNL1       -0.0103
     18 C          -1.5751  -17.0034   21.4826 C.ar    1  UNL1       -0.0032
     19 C          -3.7057  -17.8651   22.6943 C.3     1  UNL1        0.0953
     20 N          -4.9570  -18.6922   22.6911 N.3     1  UNL1       -0.2934
     21 C          -5.3290  -19.4849   21.4732 C.3     1  UNL1        0.0748
     22 C          -4.4497  -19.4504   20.2585 C.3     1  UNL1        0.0432
     23 H          -5.7317  -18.0550   22.8757 H       1  UNL1        0.1236
     24 C          -8.6156  -19.3621   20.1642 C.3     1  UNL1        0.0899
     25 C         -10.1139  -19.3734   20.0955 C.3     1  UNL1        0.0897
     26 N         -10.9061  -18.3295   20.8253 N.3     1  UNL1       -0.2691
     27 C         -10.6178  -16.8749   20.5992 C.3     1  UNL1        0.0895
     28 C         -11.4099  -15.8310   21.3290 C.3     1  UNL1        0.0862
     29 N         -12.4905  -16.2417   22.2850 N.3     1  UNL1       -0.2951
     30 C         -12.7788  -17.6962   22.5112 C.3     1  UNL1        0.0862
     31 C         -11.9866  -18.7401   21.7813 C.3     1  UNL1        0.0895
     32 H         -13.3561  -15.8185   21.9504 H       1  UNL1        0.1233
@<TRIPOS>BOND
     1    13    14   ar
     2    14    15   ar
     3    15    16   ar
     4    16    17   ar
     5    17    18   ar
     6    17    19    1
     7    19    20    1
     8    20    21    1
     9    21    12    1
    10    12     1    1
    11     1    24    1
    12    24    25    1
    13    25    26    1
    14    26    27    1
    15    27    28    1
    16    28    29    1
    17    29    30    1
    18    30    31    1
    19     2     1    1
    20     2     3    1
    21     3     4    1
    22     4     5    1
    23     5     6    1
    24     6     7   ar
    25     7     8   ar
    26     8     9   ar
    27     9    10   ar
    28    10    11   ar
    29    21    22    1
    30    18    13   ar
    31    31    26    1
    32    11     2    1
    33    22    16    1
    34    11     6   ar
    35    20    23    1
    36    29    32    1
@<TRIPOS>MOLECULE
*****
 32 36 0 0 0
SMALL
GASTEIGER

@<TRIPOS>ATOM
      1 N          -7.8054  -18.2509   22.4194 N.3     1  UNL1       -0.2667
      2 C          -9.2012  -18.4859   22.9156 C.3     1  UNL1        0.0978
      3 C          -9.4283  -19.2799   24.1678 C.3     1  UNL1        0.0224
      4 C         -10.8243  -19.5148   24.6641 C.3     1  UNL1        0.0065
      5 C         -11.9930  -18.9558   23.9082 C.3     1  UNL1        0.0277
      6 C         -11.7659  -18.1618   22.6560 C.ar    1  UNL1       -0.0073
      7 C         -12.9347  -17.6028   21.9001 C.ar    1  UNL1       -0.0015
      8 C         -12.7076  -16.8088   20.6479 C.ar    1  UNL1        0.0203
      9 C         -11.3117  -16.5738   20.1516 C.ar    1  UNL1        0.0985
     10 N         -10.1430  -17.1328   20.9075 N.ar    1  UNL1       -0.2471
     11 C         -10.3701  -17.9268   22.1597 C.ar    1  UNL1        0.0695
     12 C          -6.9607  -19.4098   21.9794 C.3     1  UNL1        0.0886
     13 C          -0.6719  -18.1467   19.5084 C.ar    1  UNL1       -0.0003
     14 C          -1.6842  -17.8811   18.4339 C.ar    1  UNL1       -0.0003
     15 C          -3.1444  -18.0806   18.7131 C.ar    1  UNL1       -0.0045
     16 C          -3.5924  -18.5457   20.0670 C.ar    1  UNL1       -0.0234
     17 C          -2.5801  -18.8113   21.1416 C.ar    1  UNL1       -0.0103
     18 C          -1.1199  -18.6117   20.8623 C.ar    1  UNL1       -0.0032
     19 C          -3.0280  -19.2764   22.4955 C.3     1  UNL1        0.0953
     20 N          -4.4882  -19.4759   22.7748 N.3     1  UNL1       -0.2934
     21 C          -5.5005  -19.2103   21.7001 C.3     1  UNL1        0.0748
     22 C          -5.0526  -18.7452   20.3463 C.3     1  UNL1        0.0432
     23 H          -4.7241  -18.8670   23.5584 H       1  UNL1        0.1236
     24 C          -7.2541  -16.8570   22.3630 C.3     1  UNL1        0.0899
     25 C          -7.8985  -15.7628   23.1613 C.3     1  UNL1        0.0897
     26 N          -7.4979  -15.5408   24.5897 N.3     1  UNL1       -0.2691
     27 C          -6.0581  -15.3024   24.9364 C.3     1  UNL1        0.0895
     28 C          -5.6575  -15.0804   26.3648 C.3     1  UNL1        0.0862
     29 N          -6.6967  -15.0968   27.4464 N.3     1  UNL1       -0.2951
     30 C          -8.1364  -15.3352   27.0996 C.3     1  UNL1        0.0862
     31 C          -8.5370  -15.5572   25.6713 C.3     1  UNL1        0.0895
     32 H          -6.6520  -14.1901   27.9114 H       1  UNL1        0.1233
@<TRIPOS>BOND
     1    13    14   ar
     2    14    15   ar
     3    15    16   ar
     4    16    17   ar
     5    17    18   ar
     6    17    19    1
     7    19    20    1
     8    20    21    1
     9    21    12    1
    10    12     1    1
    11     1    24    1
    12    24    25    1
    13    25    26    1
    14    26    27    1
    15    27    28    1
    16    28    29    1
    17    29    30    1
    18    30    31    1
    19     2     1    1
    20     2     3    1
    21     3     4    1
    22     4     5    1
    23     5     6    1
    24     6     7   ar
    25     7     8   ar
    26     8     9   ar
    27     9    10   ar
    28    10    11   ar
    29    21    22    1
    30    18    13   ar
    31    31    26    1
    32    11     2    1
    33    22    16    1
    34    11     6   ar
    35    20    23    1
    36    29    32    1
@<TRIPOS>MOLECULE
*****
 32 36 0 0 0
SMALL
GASTEIGER

@<TRIPOS>ATOM
      1 N          -7.8130  -19.2903   20.6838 N.3     1  UNL1       -0.2667
      2 C          -8.1605  -18.2975   21.7532 C.3     1  UNL1        0.0978
      3 C          -7.8139  -16.8493   21.5733 C.3     1  UNL1        0.0224
      4 C          -8.1614  -15.8565   22.6428 C.3     1  UNL1        0.0065
      5 C          -8.8556  -16.3120   23.8920 C.3     1  UNL1        0.0277
      6 C          -9.2022  -17.7602   24.0719 C.ar    1  UNL1       -0.0073
      7 C          -9.8964  -18.2157   25.3211 C.ar    1  UNL1       -0.0015
      8 C         -10.2430  -19.6640   25.5010 C.ar    1  UNL1        0.0203
      9 C          -9.8955  -20.6568   24.4316 C.ar    1  UNL1        0.0985
     10 N          -9.2014  -20.2013   23.1824 N.ar    1  UNL1       -0.2471
     11 C          -8.8547  -18.7530   23.0025 C.ar    1  UNL1        0.0695
     12 C          -6.6047  -20.1659   20.8373 C.3     1  UNL1        0.0886
     13 C          -0.3509  -17.3848   20.2004 C.ar    1  UNL1       -0.0003
     14 C          -0.8948  -17.6879   18.8358 C.ar    1  UNL1       -0.0003
     15 C          -2.2543  -18.3047   18.6902 C.ar    1  UNL1       -0.0045
     16 C          -3.0700  -18.6185   19.9093 C.ar    1  UNL1       -0.0234
     17 C          -2.5261  -18.3154   21.2739 C.ar    1  UNL1       -0.0103
     18 C          -1.1666  -17.6985   21.4195 C.ar    1  UNL1       -0.0032
     19 C          -3.3418  -18.6291   22.4931 C.3     1  UNL1        0.0953
     20 N          -4.7013  -19.2460   22.3476 N.3     1  UNL1       -0.2934
     21 C          -5.2452  -19.5490   20.9828 C.3     1  UNL1        0.0748
     22 C          -4.4295  -19.2353   19.7638 C.3     1  UNL1        0.0432
     23 H          -5.3625  -18.6100   22.7935 H       1  UNL1        0.1236
     24 C          -8.6738  -19.4076   19.4610 C.3     1  UNL1        0.0899
     25 C         -10.1534  -19.6093   19.6019 C.3     1  UNL1        0.0897
     26 N         -11.0054  -18.5247   20.1916 N.3     1  UNL1       -0.2691
     27 C         -11.0017  -17.1536   19.5831 C.3     1  UNL1        0.0895
     28 C         -11.8537  -16.0690   20.1729 C.3     1  UNL1        0.0862
     29 N         -12.7093  -16.3555   21.3712 N.3     1  UNL1       -0.2951
     30 C         -12.7130  -17.7265   21.9796 C.3     1  UNL1        0.0862
     31 C         -11.8610  -18.8111   21.3899 C.3     1  UNL1        0.0895
     32 H         -13.6715  -16.1503   21.1018 H       1  UNL1        0.1233
@<TRIPOS>BOND
     1    13    14   ar
     2    14    15   ar
     3    15    16   ar
     4    16    17   ar
     5    17    18   ar
     6    17    19    1
     7    19    20    1
     8    20    21    1
     9    21    12    1
    10    12     1    1
    11     1    24    1
    12    24    25    1
    13    25    26    1
    14    26    27    1
    15    27    28    1
    16    28    29    1
    17    29    30    1
    18    30    31    1
    19     2     1    1
    20     2     3    1
    21     3     4    1
    22     4     5    1
    23     5     6    1
    24     6     7   ar
    25     7     8   ar
    26     8     9   ar
    27     9    10   ar
    28    10    11   ar
    29    21    22    1
    30    18    13   ar
    31    31    26    1
    32    11     2    1
    33    22    16    1
    34    11     6   ar
    35    20    23    1
    36    29    32    1
@<TRIPOS>MOLECULE
*****
 32 36 0 0 0
SMALL
GASTEIGER

@<TRIPOS>ATOM
      1 N          -5.8612  -17.8761   22.1922 N.3     1  UNL1       -0.2667
      2 C          -5.0031  -18.7928   21.3717 C.3     1  UNL1        0.0978
      3 C          -5.5436  -20.1144   20.9120 C.3     1  UNL1        0.0224
      4 C          -4.6855  -21.0312   20.0914 C.3     1  UNL1        0.0065
      5 C          -3.2870  -20.6264   19.7306 C.3     1  UNL1        0.0277
      6 C          -2.7465  -19.3048   20.1903 C.ar    1  UNL1       -0.0073
      7 C          -1.3480  -18.8999   19.8295 C.ar    1  UNL1       -0.0015
      8 C          -0.8075  -17.5784   20.2892 C.ar    1  UNL1        0.0203
      9 C          -1.6656  -16.6616   21.1097 C.ar    1  UNL1        0.0985
     10 N          -3.0641  -17.0664   21.4705 N.ar    1  UNL1       -0.2471
     11 C          -3.6045  -18.3880   21.0108 C.ar    1  UNL1        0.0695
     12 C          -7.2057  -17.4500   21.6813 C.3     1  UNL1        0.0886
     13 C         -13.4756  -18.3461   24.3525 C.ar    1  UNL1       -0.0003
     14 C         -13.5273  -17.2429   23.3375 C.ar    1  UNL1       -0.0003
     15 C         -12.2837  -16.8431   22.6003 C.ar    1  UNL1       -0.0045
     16 C         -10.9883  -17.5464   22.8780 C.ar    1  UNL1       -0.0234
     17 C         -10.9365  -18.6496   23.8930 C.ar    1  UNL1       -0.0103
     18 C         -12.1802  -19.0495   24.6302 C.ar    1  UNL1       -0.0032
     19 C          -9.6411  -19.3530   24.1707 C.3     1  UNL1        0.0953
     20 N          -8.3975  -18.9532   23.4335 N.3     1  UNL1       -0.2934
     21 C          -8.4493  -17.8499   22.4185 C.3     1  UNL1        0.0748
     22 C          -9.7447  -17.1465   22.1408 C.3     1  UNL1        0.0432
     23 H          -8.0631  -19.7851   22.9473 H       1  UNL1        0.1236
     24 C          -5.3749  -17.3854   23.5236 C.3     1  UNL1        0.0899
     25 C          -5.5953  -15.9563   23.9223 C.3     1  UNL1        0.0897
     26 N          -6.4875  -15.6306   25.0833 N.3     1  UNL1       -0.2691
     27 C          -5.8960  -15.4022   26.4428 C.3     1  UNL1        0.0895
     28 C          -6.7882  -15.0765   27.6038 C.3     1  UNL1        0.0862
     29 N          -8.2719  -14.9792   27.4053 N.3     1  UNL1       -0.2951
     30 C          -8.8633  -15.2075   26.0458 C.3     1  UNL1        0.0862
     31 C          -7.9711  -15.5332   24.8849 C.3     1  UNL1        0.0895
     32 H          -8.5462  -14.0395   27.6917 H       1  UNL1        0.1233
@<TRIPOS>BOND
     1    13    14   ar
     2    14    15   ar
     3    15    16   ar
     4    16    17   ar
     5    17    18   ar
     6    17    19    1
     7    19    20    1
     8    20    21    1
     9    21    12    1
    10    12     1    1
    11     1    24    1
    12    24    25    1
    13    25    26    1
    14    26    27    1
    15    27    28    1
    16    28    29    1
    17    29    30    1
    18    30    31    1
    19     2     1    1
    20     2     3    1
    21     3     4    1
    22     4     5    1
    23     5     6    1
    24     6     7   ar
    25     7     8   ar
    26     8     9   ar
    27     9    10   ar
    28    10    11   ar
    29    21    22    1
    30    18    13   ar
    31    31    26    1
    32    11     2    1
    33    22    16    1
    34    11     6   ar
    35    20    23    1
    36    29    32    1
@<TRIPOS>MOLECULE
*****
 32 36 0 0 0
SMALL
GASTEIGER

@<TRIPOS>ATOM
      1 N          -6.8296  -18.7594   22.1391 N.3     1  UNL1       -0.2667
      2 C          -5.6449  -19.3054   21.3987 C.3     1  UNL1        0.0978
      3 C          -5.8041  -20.4997   20.5052 C.3     1  UNL1        0.0224
      4 C          -4.6192  -21.0457   19.7648 C.3     1  UNL1        0.0065
      5 C          -3.2753  -20.3974   19.9179 C.3     1  UNL1        0.0277
      6 C          -3.1161  -19.2031   20.8113 C.ar    1  UNL1       -0.0073
      7 C          -1.7722  -18.5548   20.9644 C.ar    1  UNL1       -0.0015
      8 C          -1.6130  -17.3604   21.8578 C.ar    1  UNL1        0.0203
      9 C          -2.7977  -16.8144   22.5982 C.ar    1  UNL1        0.0985
     10 N          -4.1416  -17.4628   22.4452 N.ar    1  UNL1       -0.2471
     11 C          -4.3008  -18.6571   21.5517 C.ar    1  UNL1        0.0695
     12 C          -7.8953  -19.6892   22.6390 C.3     1  UNL1        0.0886
     13 C         -14.4227  -17.9871   23.9601 C.ar    1  UNL1       -0.0003
     14 C         -13.7804  -18.4854   25.2207 C.ar    1  UNL1       -0.0003
     15 C         -12.3465  -18.9254   25.2086 C.ar    1  UNL1       -0.0045
     16 C         -11.5548  -18.8672   23.9359 C.ar    1  UNL1       -0.0234
     17 C         -12.1971  -18.3690   22.6753 C.ar    1  UNL1       -0.0103
     18 C         -13.6310  -17.9289   22.6874 C.ar    1  UNL1       -0.0032
     19 C         -11.4054  -18.3108   21.4025 C.3     1  UNL1        0.0953
     20 N          -9.9715  -18.7508   21.3904 N.3     1  UNL1       -0.2934
     21 C          -9.3292  -19.2491   22.6511 C.3     1  UNL1        0.0748
     22 C         -10.1209  -19.3073   23.9238 C.3     1  UNL1        0.0432
     23 H          -9.4210  -17.9521   21.0753 H       1  UNL1        0.1236
     24 C          -6.9487  -17.2836   22.3796 C.3     1  UNL1        0.0899
     25 C          -7.9557  -16.7627   23.3617 C.3     1  UNL1        0.0897
     26 N          -7.4977  -16.1541   24.6540 N.3     1  UNL1       -0.2691
     27 C          -8.4623  -15.9956   25.7918 C.3     1  UNL1        0.0895
     28 C          -8.0043  -15.3870   27.0840 C.3     1  UNL1        0.0862
     29 N          -6.5818  -14.9369   27.2385 N.3     1  UNL1       -0.2951
     30 C          -5.6173  -15.0954   26.1007 C.3     1  UNL1        0.0862
     31 C          -6.0752  -15.7040   24.8084 C.3     1  UNL1        0.0895
     32 H          -6.1935  -15.4535   28.0277 H       1  UNL1        0.1233
@<TRIPOS>BOND
     1    13    14   ar
     2    14    15   ar
     3    15    16   ar
     4    16    17   ar
     5    17    18   ar
     6    17    19    1
     7    19    20    1
     8    20    21    1
     9    21    12    1
    10    12     1    1
    11     1    24    1
    12    24    25    1
    13    25    26    1
    14    26    27    1
    15    27    28    1
    16    28    29    1
    17    29    30    1
    18    30    31    1
    19     2     1    1
    20     2     3    1
    21     3     4    1
    22     4     5    1
    23     5     6    1
    24     6     7   ar
    25     7     8   ar
    26     8     9   ar
    27     9    10   ar
    28    10    11   ar
    29    21    22    1
    30    18    13   ar
    31    31    26    1
    32    11     2    1
    33    22    16    1
    34    11     6   ar
    35    20    23    1
    36    29    32    1
