@<TRIPOS>MOLECULE
*****
 33 37 0 0 0
SMALL
GASTEIGER

@<TRIPOS>ATOM
      1 N           3.0043    0.1648   19.8259 N.ar    1  UNL1       -0.2286
      2 C           3.3720    1.5067   20.3864 C.ar    1  UNL1        0.0990
      3 C           2.1215    2.1487   20.9101 C.ar    1  UNL1        0.0338
      4 C           0.9811    1.2035   20.6734 C.ar    1  UNL1        0.0981
      5 N           1.5267   -0.0226   20.0033 N.ar    1  UNL1       -0.1680
      6 C          -0.2694    1.8455   21.1971 C.3     1  UNL1        0.1414
      7 N           0.0983    3.1874   21.7576 N.am    1  UNL1       -0.2661
      8 C          -0.8459    4.1695   22.3852 C.2     1  UNL1        0.2508
      9 O          -0.3304    5.4791   22.9040 O.2     1  UNL1       -0.2698
     10 C           1.5760    3.3748   21.5802 C.3     1  UNL1        0.1236
     11 C           4.3990   -4.7451   18.8526 C.3     1  UNL1        0.0521
     12 C           4.6459   -3.2723   18.7116 C.ar    1  UNL1        0.0609
     13 C           3.7017   -2.2901   19.3392 C.ar    1  UNL1        0.0339
     14 C           3.9485   -0.8173   19.1983 C.ar    1  UNL1        0.0855
     15 C           5.1396   -0.3266   18.4298 C.ar    1  UNL1        0.0398
     16 C           6.0837   -1.3088   17.8022 C.ar    1  UNL1        0.1000
     17 N           5.8369   -2.7816   17.9431 N.ar    1  UNL1       -0.2480
     18 C          -2.3057    3.8420   22.4939 C.ar    1  UNL1        0.0676
     19 C          -3.1523    3.7700   21.2578 C.ar    1  UNL1        0.0160
     20 C          -4.6121    3.4425   21.3666 C.ar    1  UNL1        0.0687
     21 C          -5.2253    3.1871   22.7114 C.ar    1  UNL1        0.0115
     22 C          -4.3787    3.2592   23.9476 C.ar    1  UNL1        0.0154
     23 C          -2.9189    3.5866   23.8389 C.ar    1  UNL1        0.0523
     24 N          -2.0723    3.6587   25.0750 N.pl3   1  UNL1       -0.3070
     25 C          -1.2207    2.4888   25.4701 C.3     1  UNL1        0.0964
     26 C          -0.3741    2.5608   26.7062 C.3     1  UNL1        0.0880
     27 C          -0.3791    3.8028   27.5473 C.3     1  UNL1        0.2672
     28 F          -0.0485    4.7531   28.6598 F       1  UNL1       -0.2042
     29 F           0.5873    2.9629   28.3287 F       1  UNL1       -0.2042
     30 C          -1.2307    4.9727   27.1523 C.3     1  UNL1        0.0880
     31 C          -2.0773    4.9007   25.9161 C.3     1  UNL1        0.0964
     32 C          -5.4586    3.3705   20.1303 C.1     1  UNL1        0.1004
     33 N          -6.3052    3.2985   18.8942 N.1     1  UNL1       -0.1908
@<TRIPOS>BOND
     1    11    12    1
     2    12    13   ar
     3    13    14   ar
     4    14     1    1
     5     1     2   ar
     6     2     3   ar
     7     3     4   ar
     8     4     5   ar
     9     4     6    1
    10     6     7    1
    11     7     8   am
    12     8     9    2
    13     8    18    1
    14    18    19   ar
    15    19    20   ar
    16    20    32    1
    17    32    33    3
    18    20    21   ar
    19    21    22   ar
    20    22    23   ar
    21    23    24    1
    22    24    25    1
    23    25    26    1
    24    26    27    1
    25    27    28    1
    26    27    29    1
    27    27    30    1
    28    30    31    1
    29     7    10    1
    30    14    15   ar
    31    15    16   ar
    32    16    17   ar
    33    17    12   ar
    34     5     1   ar
    35    23    18   ar
    36    31    24    1
    37    10     3    1
@<TRIPOS>MOLECULE
*****
 33 37 0 0 0
SMALL
GASTEIGER

@<TRIPOS>ATOM
      1 N           1.1881    1.5039   25.3006 N.ar    1  UNL1       -0.2286
      2 C           0.2189    1.0683   24.2419 C.ar    1  UNL1        0.0990
      3 C           0.9204    1.1305   22.9175 C.ar    1  UNL1        0.0338
      4 C           2.3231    1.6046   23.1577 C.ar    1  UNL1        0.0981
      5 N           2.4885    1.8354   24.6306 N.ar    1  UNL1       -0.1680
      6 C           3.0246    1.6669   21.8333 C.3     1  UNL1        0.1414
      7 N           2.0554    1.2312   20.7745 N.am    1  UNL1       -0.2661
      8 C           2.3372    1.1426   19.3040 C.2     1  UNL1        0.2508
      9 O           1.2633    0.6877   18.3605 O.2     1  UNL1       -0.2698
     10 C           0.7550    0.8997   21.4446 C.3     1  UNL1        0.1236
     11 C          -1.7209    0.2204   29.4104 C.3     1  UNL1        0.0521
     12 C          -0.5482    0.9508   28.8262 C.ar    1  UNL1        0.0609
     13 C          -0.2664    0.8622   27.3556 C.ar    1  UNL1        0.0339
     14 C           0.9063    1.5925   26.7713 C.ar    1  UNL1        0.0855
     15 C           1.7972    2.4115   27.6576 C.ar    1  UNL1        0.0398
     16 C           1.5153    2.5001   29.1283 C.ar    1  UNL1        0.1000
     17 N           0.3427    1.7697   29.7126 N.ar    1  UNL1       -0.2480
     18 C           3.6928    1.5089   18.7767 C.ar    1  UNL1        0.0676
     19 C           3.9394    2.8850   18.2330 C.ar    1  UNL1        0.0160
     20 C           5.2951    3.2513   17.7057 C.ar    1  UNL1        0.0687
     21 C           6.4041    2.2416   17.7220 C.ar    1  UNL1        0.0115
     22 C           6.1576    0.8654   18.2657 C.ar    1  UNL1        0.0154
     23 C           4.8020    0.4991   18.7930 C.ar    1  UNL1        0.0523
     24 N           4.5554   -0.8769   19.3366 N.pl3   1  UNL1       -0.3070
     25 C           4.0003   -1.9475   18.4445 C.3     1  UNL1        0.0964
     26 C           3.7538   -3.3236   18.9882 C.3     1  UNL1        0.0880
     27 C           4.0623   -3.6291   20.4239 C.3     1  UNL1        0.2672
     28 F           4.1940   -4.3994   21.7043 F       1  UNL1       -0.2042
     29 F           3.5529   -4.9672   19.9765 F       1  UNL1       -0.2042
     30 C           4.6174   -2.5587   21.3161 C.3     1  UNL1        0.0880
     31 C           4.8640   -1.1825   20.7725 C.3     1  UNL1        0.0964
     32 C           5.5415    4.6275   17.1620 C.1     1  UNL1        0.1004
     33 N           5.7878    6.0036   16.6185 N.1     1  UNL1       -0.1908
@<TRIPOS>BOND
     1    11    12    1
     2    12    13   ar
     3    13    14   ar
     4    14     1    1
     5     1     2   ar
     6     2     3   ar
     7     3     4   ar
     8     4     5   ar
     9     4     6    1
    10     6     7    1
    11     7     8   am
    12     8     9    2
    13     8    18    1
    14    18    19   ar
    15    19    20   ar
    16    20    32    1
    17    32    33    3
    18    20    21   ar
    19    21    22   ar
    20    22    23   ar
    21    23    24    1
    22    24    25    1
    23    25    26    1
    24    26    27    1
    25    27    28    1
    26    27    29    1
    27    27    30    1
    28    30    31    1
    29     7    10    1
    30    14    15   ar
    31    15    16   ar
    32    16    17   ar
    33    17    12   ar
    34     5     1   ar
    35    23    18   ar
    36    31    24    1
    37    10     3    1
@<TRIPOS>MOLECULE
*****
 33 37 0 0 0
SMALL
GASTEIGER

@<TRIPOS>ATOM
      1 N           3.0640    0.6792   27.2878 N.ar    1  UNL1       -0.2286
      2 C           3.6209    1.7619   26.4117 C.ar    1  UNL1        0.0990
      3 C           4.0417    1.1377   25.1143 C.ar    1  UNL1        0.0338
      4 C           3.7449   -0.3308   25.1885 C.ar    1  UNL1        0.0981
      5 N           3.1406   -0.6141   26.5319 N.ar    1  UNL1       -0.1680
      6 C           4.1656   -0.9550   23.8911 C.3     1  UNL1        0.1414
      7 N           4.7226    0.1277   23.0149 N.am    1  UNL1       -0.2661
      8 C           5.2615   -0.0515   21.6267 C.2     1  UNL1        0.2508
      9 O           5.7881    1.1306   20.8681 O.2     1  UNL1       -0.2698
     10 C           4.6460    1.4210   23.7709 C.3     1  UNL1        0.1236
     11 C           3.4697   -0.1049   32.4084 C.3     1  UNL1        0.0521
     12 C           2.7279    0.4663   31.2365 C.ar    1  UNL1        0.0609
     13 C           3.2668    0.2872   29.8481 C.ar    1  UNL1        0.0339
     14 C           2.5251    0.8584   28.6761 C.ar    1  UNL1        0.0855
     15 C           1.2444    1.6087   28.8925 C.ar    1  UNL1        0.0398
     16 C           0.7055    1.7879   30.2809 C.ar    1  UNL1        0.1000
     17 N           1.4473    1.2167   31.4528 N.ar    1  UNL1       -0.2480
     18 C           5.2739   -1.4128   20.9968 C.ar    1  UNL1        0.0676
     19 C           6.4033   -2.3590   21.2780 C.ar    1  UNL1        0.0160
     20 C           6.4157   -3.7204   20.6482 C.ar    1  UNL1        0.0687
     21 C           5.2988   -4.1355   19.7372 C.ar    1  UNL1        0.0115
     22 C           4.1693   -3.1893   19.4560 C.ar    1  UNL1        0.0154
     23 C           4.1569   -1.8280   20.0858 C.ar    1  UNL1        0.0523
     24 N           3.0275   -0.8818   19.8046 N.pl3   1  UNL1       -0.3070
     25 C           3.0599   -0.0186   18.5783 C.3     1  UNL1        0.0964
     26 C           1.9304    0.9277   18.2971 C.3     1  UNL1        0.0880
     27 C           0.7686    1.0107   19.2422 C.3     1  UNL1        0.2672
     28 F          -0.5398    1.4460   19.8326 F       1  UNL1       -0.2042
     29 F           0.3466    2.0251   18.2210 F       1  UNL1       -0.2042
     30 C           0.7361    0.1475   20.4685 C.3     1  UNL1        0.0880
     31 C           1.8656   -0.7988   20.7498 C.3     1  UNL1        0.0964
     32 C           7.5452   -4.6665   20.9294 C.1     1  UNL1        0.1004
     33 N           8.6747   -5.6126   21.2108 N.1     1  UNL1       -0.1908
@<TRIPOS>BOND
     1    11    12    1
     2    12    13   ar
     3    13    14   ar
     4    14     1    1
     5     1     2   ar
     6     2     3   ar
     7     3     4   ar
     8     4     5   ar
     9     4     6    1
    10     6     7    1
    11     7     8   am
    12     8     9    2
    13     8    18    1
    14    18    19   ar
    15    19    20   ar
    16    20    32    1
    17    32    33    3
    18    20    21   ar
    19    21    22   ar
    20    22    23   ar
    21    23    24    1
    22    24    25    1
    23    25    26    1
    24    26    27    1
    25    27    28    1
    26    27    29    1
    27    27    30    1
    28    30    31    1
    29     7    10    1
    30    14    15   ar
    31    15    16   ar
    32    16    17   ar
    33    17    12   ar
    34     5     1   ar
    35    23    18   ar
    36    31    24    1
    37    10     3    1
@<TRIPOS>MOLECULE
*****
 33 37 0 0 0
SMALL
GASTEIGER

@<TRIPOS>ATOM
      1 N           3.4680   -0.3658   24.2648 N.ar    1  UNL1       -0.2286
      2 C           4.9355   -0.4662   23.9708 C.ar    1  UNL1        0.0990
      3 C           5.6083   -1.0668   25.1694 C.ar    1  UNL1        0.0338
      4 C           4.5566   -1.3377   26.2041 C.ar    1  UNL1        0.0981
      5 N           3.2338   -0.9044   25.6450 N.ar    1  UNL1       -0.1680
      6 C           5.2294   -1.9383   27.4027 C.3     1  UNL1        0.1414
      7 N           6.6969   -2.0387   27.1088 N.am    1  UNL1       -0.2661
      8 C           7.7460   -2.5822   28.0328 C.2     1  UNL1        0.2508
      9 O           9.1814   -2.6194   27.5988 O.2     1  UNL1       -0.2698
     10 C           6.9310   -1.5000   25.7285 C.3     1  UNL1        0.1236
     11 C           1.2861   -0.1692   19.5530 C.3     1  UNL1        0.0521
     12 C           1.3279    0.2760   20.9848 C.ar    1  UNL1        0.0609
     13 C           2.3770   -0.2675   21.9089 C.ar    1  UNL1        0.0339
     14 C           2.4189    0.1777   23.3407 C.ar    1  UNL1        0.0855
     15 C           1.4116    1.1664   23.8484 C.ar    1  UNL1        0.0398
     16 C           0.3625    1.7099   22.9243 C.ar    1  UNL1        0.1000
     17 N           0.3206    1.2648   21.4925 N.ar    1  UNL1       -0.2480
     18 C           7.3598   -3.0885   29.3909 C.ar    1  UNL1        0.0676
     19 C           7.0361   -2.1189   30.4887 C.ar    1  UNL1        0.0160
     20 C           6.6499   -2.6253   31.8469 C.ar    1  UNL1        0.0687
     21 C           6.5874   -4.1011   32.1072 C.ar    1  UNL1        0.0115
     22 C           6.9111   -5.0708   31.0094 C.ar    1  UNL1        0.0154
     23 C           7.2973   -4.5644   29.6513 C.ar    1  UNL1        0.0523
     24 N           7.6209   -5.5340   28.5535 N.pl3   1  UNL1       -0.3070
     25 C           8.9353   -6.2568   28.5546 C.3     1  UNL1        0.0964
     26 C           9.2590   -7.2264   27.4568 C.3     1  UNL1        0.0880
     27 C           8.2682   -7.4732   26.3580 C.3     1  UNL1        0.2672
     28 F           7.6608   -8.0394   25.1088 F       1  UNL1       -0.2042
     29 F           9.3716   -8.3926   25.9252 F       1  UNL1       -0.2042
     30 C           6.9539   -6.7506   26.3568 C.3     1  UNL1        0.0880
     31 C           6.6301   -5.7809   27.4546 C.3     1  UNL1        0.0964
     32 C           6.3263   -1.6556   32.9445 C.1     1  UNL1        0.1004
     33 N           6.0028   -0.6858   34.0422 N.1     1  UNL1       -0.1908
@<TRIPOS>BOND
     1    11    12    1
     2    12    13   ar
     3    13    14   ar
     4    14     1    1
     5     1     2   ar
     6     2     3   ar
     7     3     4   ar
     8     4     5   ar
     9     4     6    1
    10     6     7    1
    11     7     8   am
    12     8     9    2
    13     8    18    1
    14    18    19   ar
    15    19    20   ar
    16    20    32    1
    17    32    33    3
    18    20    21   ar
    19    21    22   ar
    20    22    23   ar
    21    23    24    1
    22    24    25    1
    23    25    26    1
    24    26    27    1
    25    27    28    1
    26    27    29    1
    27    27    30    1
    28    30    31    1
    29     7    10    1
    30    14    15   ar
    31    15    16   ar
    32    16    17   ar
    33    17    12   ar
    34     5     1   ar
    35    23    18   ar
    36    31    24    1
    37    10     3    1
@<TRIPOS>MOLECULE
*****
 33 37 0 0 0
SMALL
GASTEIGER

@<TRIPOS>ATOM
      1 N           2.7448    0.5925   26.5484 N.ar    1  UNL1       -0.2286
      2 C           3.8877   -0.3551   26.3347 C.ar    1  UNL1        0.0990
      3 C           4.4122   -0.1429   24.9455 C.ar    1  UNL1        0.0338
      4 C           3.5935    0.9359   24.3006 C.ar    1  UNL1        0.0981
      5 N           2.5629    1.3904   25.2913 N.ar    1  UNL1       -0.1680
      6 C           4.1180    1.1481   22.9115 C.3     1  UNL1        0.1414
      7 N           5.2610    0.2005   22.6977 N.am    1  UNL1       -0.2661
      8 C           6.0785    0.0731   21.4467 C.2     1  UNL1        0.2508
      9 O           7.1964   -0.9249   21.3795 O.2     1  UNL1       -0.2698
     10 C           5.4428   -0.5974   23.9549 C.3     1  UNL1        0.1236
     11 C          -1.7142   -0.1642   29.1066 C.3     1  UNL1        0.0521
     12 C          -0.3024    0.3416   29.0787 C.ar    1  UNL1        0.0609
     13 C           0.5153    0.2142   27.8276 C.ar    1  UNL1        0.0339
     14 C           1.9272    0.7199   27.7995 C.ar    1  UNL1        0.0855
     15 C           2.5214    1.3531   29.0226 C.ar    1  UNL1        0.0398
     16 C           1.7038    1.4805   30.2737 C.ar    1  UNL1        0.1000
     17 N           0.2919    0.9747   30.3017 N.ar    1  UNL1       -0.2480
     18 C           5.7783    0.9436   20.2626 C.ar    1  UNL1        0.0676
     19 C           6.1226    2.4031   20.2983 C.ar    1  UNL1        0.0160
     20 C           5.8224    3.2738   19.1142 C.ar    1  UNL1        0.0687
     21 C           5.1779    2.6849   17.8946 C.ar    1  UNL1        0.0115
     22 C           4.8336    1.2253   17.8588 C.ar    1  UNL1        0.0154
     23 C           5.1338    0.3548   19.0428 C.ar    1  UNL1        0.0523
     24 N           4.7895   -1.1048   19.0071 N.pl3   1  UNL1       -0.3070
     25 C           3.5053   -1.5875   19.6136 C.3     1  UNL1        0.0964
     26 C           3.1611   -3.0470   19.5779 C.3     1  UNL1        0.0880
     27 C           4.1010   -4.0238   18.9357 C.3     1  UNL1        0.2672
     28 F           4.6626   -5.3252   18.4449 F       1  UNL1       -0.2042
     29 F           3.0118   -4.9585   19.3718 F       1  UNL1       -0.2042
     30 C           5.3851   -3.5412   18.3292 C.3     1  UNL1        0.0880
     31 C           5.7295   -2.0816   18.3649 C.3     1  UNL1        0.0964
     32 C           6.1667    4.7333   19.1501 C.1     1  UNL1        0.1004
     33 N           6.5112    6.1927   19.1859 N.1     1  UNL1       -0.1908
@<TRIPOS>BOND
     1    11    12    1
     2    12    13   ar
     3    13    14   ar
     4    14     1    1
     5     1     2   ar
     6     2     3   ar
     7     3     4   ar
     8     4     5   ar
     9     4     6    1
    10     6     7    1
    11     7     8   am
    12     8     9    2
    13     8    18    1
    14    18    19   ar
    15    19    20   ar
    16    20    32    1
    17    32    33    3
    18    20    21   ar
    19    21    22   ar
    20    22    23   ar
    21    23    24    1
    22    24    25    1
    23    25    26    1
    24    26    27    1
    25    27    28    1
    26    27    29    1
    27    27    30    1
    28    30    31    1
    29     7    10    1
    30    14    15   ar
    31    15    16   ar
    32    16    17   ar
    33    17    12   ar
    34     5     1   ar
    35    23    18   ar
    36    31    24    1
    37    10     3    1
@<TRIPOS>MOLECULE
*****
 33 37 0 0 0
SMALL
GASTEIGER

@<TRIPOS>ATOM
      1 N           4.9254   -1.0056   28.3844 N.ar    1  UNL1       -0.2286
      2 C           5.9440   -0.1969   27.6371 C.ar    1  UNL1        0.0990
      3 C           5.4471   -0.0074   26.2345 C.ar    1  UNL1        0.0338
      4 C           4.1214   -0.6990   26.1150 C.ar    1  UNL1        0.0981
      5 N           3.7990   -1.3159   27.4437 N.ar    1  UNL1       -0.1680
      6 C           3.6245   -0.5095   24.7124 C.3     1  UNL1        0.1414
      7 N           4.6432    0.2992   23.9651 N.am    1  UNL1       -0.2661
      8 C           4.5515    0.7231   22.5292 C.2     1  UNL1        0.2508
      9 O           5.6538    1.5340   21.9147 O.2     1  UNL1       -0.2698
     10 C           5.7696    0.6095   24.9058 C.3     1  UNL1        0.1236
     11 C           7.2255   -3.7989   32.1136 C.3     1  UNL1        0.0521
     12 C           6.1671   -2.8262   31.6850 C.ar    1  UNL1        0.0609
     13 C           6.0754   -2.4022   30.2490 C.ar    1  UNL1        0.0339
     14 C           5.0171   -1.4295   29.8203 C.ar    1  UNL1        0.0855
     15 C           4.0504   -0.8808   30.8275 C.ar    1  UNL1        0.0398
     16 C           4.1422   -1.3049   32.2634 C.ar    1  UNL1        0.1000
     17 N           5.2005   -2.2775   32.6922 N.ar    1  UNL1       -0.2480
     18 C           3.3576    0.3362   21.7077 C.ar    1  UNL1        0.0676
     19 C           2.1446    1.2184   21.6857 C.ar    1  UNL1        0.0160
     20 C           0.9506    0.8315   20.8642 C.ar    1  UNL1        0.0687
     21 C           0.9697   -0.4375   20.0648 C.ar    1  UNL1        0.0115
     22 C           2.1827   -1.3197   20.0867 C.ar    1  UNL1        0.0154
     23 C           3.3766   -0.9328   20.9082 C.ar    1  UNL1        0.0523
     24 N           4.5895   -1.8150   20.9302 N.pl3   1  UNL1       -0.3070
     25 C           5.6575   -1.6478   19.8902 C.3     1  UNL1        0.0964
     26 C           6.8705   -2.5300   19.9122 C.3     1  UNL1        0.0880
     27 C           7.0155   -3.5793   20.9742 C.3     1  UNL1        0.2672
     28 F           7.6022   -4.7065   21.7711 F       1  UNL1       -0.2042
     29 F           8.2872   -3.8036   20.2110 F       1  UNL1       -0.2042
     30 C           5.9477   -3.7465   22.0142 C.3     1  UNL1        0.0880
     31 C           4.7346   -2.8644   21.9923 C.3     1  UNL1        0.0964
     32 C          -0.2623    1.7137   20.8423 C.1     1  UNL1        0.1004
     33 N          -1.4752    2.5959   20.8205 N.1     1  UNL1       -0.1908
@<TRIPOS>BOND
     1    11    12    1
     2    12    13   ar
     3    13    14   ar
     4    14     1    1
     5     1     2   ar
     6     2     3   ar
     7     3     4   ar
     8     4     5   ar
     9     4     6    1
    10     6     7    1
    11     7     8   am
    12     8     9    2
    13     8    18    1
    14    18    19   ar
    15    19    20   ar
    16    20    32    1
    17    32    33    3
    18    20    21   ar
    19    21    22   ar
    20    22    23   ar
    21    23    24    1
    22    24    25    1
    23    25    26    1
    24    26    27    1
    25    27    28    1
    26    27    29    1
    27    27    30    1
    28    30    31    1
    29     7    10    1
    30    14    15   ar
    31    15    16   ar
    32    16    17   ar
    33    17    12   ar
    34     5     1   ar
    35    23    18   ar
    36    31    24    1
    37    10     3    1
@<TRIPOS>MOLECULE
*****
 33 37 0 0 0
SMALL
GASTEIGER

@<TRIPOS>ATOM
      1 N           6.2403   -1.9320   31.9164 N.ar    1  UNL1       -0.2286
      2 C           6.6389   -0.5702   31.4302 C.ar    1  UNL1        0.0990
      3 C           6.1646    0.4378   32.4347 C.ar    1  UNL1        0.0338
      4 C           5.4730   -0.3011   33.5418 C.ar    1  UNL1        0.0981
      5 N           5.5197   -1.7658   33.2215 N.ar    1  UNL1       -0.1680
      6 C           4.9987    0.7068   34.5464 C.3     1  UNL1        0.1414
      7 N           5.3973    2.0688   34.0602 N.am    1  UNL1       -0.2661
      8 C           5.1234    3.3686   34.7566 C.2     1  UNL1        0.2508
      9 O           5.5855    4.6586   34.1462 O.2     1  UNL1       -0.2698
     10 C           6.1179    1.9024   32.7551 C.3     1  UNL1        0.1236
     11 C           6.7168   -4.6725   27.5275 C.3     1  UNL1        0.0521
     12 C           6.7525   -4.6023   29.0254 C.ar    1  UNL1        0.0609
     13 C           6.4786   -3.3023   29.7220 C.ar    1  UNL1        0.0339
     14 C           6.5142   -3.2320   31.2199 C.ar    1  UNL1        0.0855
     15 C           6.8237   -4.4616   32.0213 C.ar    1  UNL1        0.0398
     16 C           7.0976   -5.7615   31.3247 C.ar    1  UNL1        0.1000
     17 N           7.0620   -5.8319   29.8268 N.ar    1  UNL1       -0.2480
     18 C           4.3875    3.3787   36.0636 C.ar    1  UNL1        0.0676
     19 C           5.1478    3.2851   37.3532 C.ar    1  UNL1        0.0160
     20 C           4.4119    3.2952   38.6603 C.ar    1  UNL1        0.0687
     21 C           2.9156    3.3988   38.6778 C.ar    1  UNL1        0.0115
     22 C           2.1552    3.4924   37.3881 C.ar    1  UNL1        0.0154
     23 C           2.8911    3.4823   36.0811 C.ar    1  UNL1        0.0523
     24 N           2.1307    3.5759   34.7916 N.pl3   1  UNL1       -0.3070
     25 C           1.5128    4.8787   34.3781 C.3     1  UNL1        0.0964
     26 C           0.7524    4.9722   33.0885 C.3     1  UNL1        0.0880
     27 C           0.6100    3.7631   32.2124 C.3     1  UNL1        0.2672
     28 F           0.2040    2.9026   31.0528 F       1  UNL1       -0.2042
     29 F          -0.1490    4.7670   31.3962 F       1  UNL1       -0.2042
     30 C           1.2279    2.4603   32.6257 C.3     1  UNL1        0.0880
     31 C           1.9883    2.3667   33.9154 C.3     1  UNL1        0.0964
     32 C           5.1724    3.2016   39.9498 C.1     1  UNL1        0.1004
     33 N           5.9328    3.1081   41.2394 N.1     1  UNL1       -0.1908
@<TRIPOS>BOND
     1    11    12    1
     2    12    13   ar
     3    13    14   ar
     4    14     1    1
     5     1     2   ar
     6     2     3   ar
     7     3     4   ar
     8     4     5   ar
     9     4     6    1
    10     6     7    1
    11     7     8   am
    12     8     9    2
    13     8    18    1
    14    18    19   ar
    15    19    20   ar
    16    20    32    1
    17    32    33    3
    18    20    21   ar
    19    21    22   ar
    20    22    23   ar
    21    23    24    1
    22    24    25    1
    23    25    26    1
    24    26    27    1
    25    27    28    1
    26    27    29    1
    27    27    30    1
    28    30    31    1
    29     7    10    1
    30    14    15   ar
    31    15    16   ar
    32    16    17   ar
    33    17    12   ar
    34     5     1   ar
    35    23    18   ar
    36    31    24    1
    37    10     3    1
@<TRIPOS>MOLECULE
*****
 33 37 0 0 0
SMALL
GASTEIGER

@<TRIPOS>ATOM
      1 N          -1.8173    3.1379   21.4504 N.ar    1  UNL1       -0.2286
      2 C          -0.6990    3.4370   22.4043 C.ar    1  UNL1        0.0990
      3 C           0.4775    2.5899   22.0194 C.ar    1  UNL1        0.0338
      4 C           0.0863    1.7671   20.8278 C.ar    1  UNL1        0.0981
      5 N          -1.3320    2.1058   20.4761 N.ar    1  UNL1       -0.1680
      6 C           1.2628    0.9199   20.4430 C.3     1  UNL1        0.1414
      7 N           2.3812    1.2191   21.3968 N.am    1  UNL1       -0.2661
      8 C           3.7453    0.5956   21.3794 C.2     1  UNL1        0.2508
      9 O           4.7663    0.9964   22.4028 O.2     1  UNL1       -0.2698
     10 C           1.8958    2.2512   22.3711 C.3     1  UNL1        0.1236
     11 C          -6.5028    3.7722   19.2955 C.3     1  UNL1        0.0521
     12 C          -5.5243    4.0785   20.3903 C.ar    1  UNL1        0.0609
     13 C          -4.1601    3.4551   20.3730 C.ar    1  UNL1        0.0339
     14 C          -3.1815    3.7613   21.4678 C.ar    1  UNL1        0.0855
     15 C          -3.5672    4.6910   22.5800 C.ar    1  UNL1        0.0398
     16 C          -4.9314    5.3144   22.5973 C.ar    1  UNL1        0.1000
     17 N          -5.9100    5.0081   21.5025 N.ar    1  UNL1       -0.2480
     18 C           4.0887   -0.4286   20.3388 C.ar    1  UNL1        0.0676
     19 C           3.7864   -1.8772   20.5838 C.ar    1  UNL1        0.0160
     20 C           4.1297   -2.9016   19.5431 C.ar    1  UNL1        0.0687
     21 C           4.7753   -2.4772   18.2574 C.ar    1  UNL1        0.0115
     22 C           5.0776   -1.0286   18.0123 C.ar    1  UNL1        0.0154
     23 C           4.7343   -0.0043   19.0530 C.ar    1  UNL1        0.0523
     24 N           5.0366    1.4443   18.8079 N.pl3   1  UNL1       -0.3070
     25 C           3.9709    2.3522   18.2693 C.3     1  UNL1        0.0964
     26 C           4.2732    3.8008   18.0243 C.3     1  UNL1        0.0880
     27 C           5.6412    4.3416   18.3178 C.3     1  UNL1        0.2672
     28 F           6.7759    5.3151   18.4389 F       1  UNL1       -0.2042
     29 F           4.9696    5.5876   17.8213 F       1  UNL1       -0.2042
     30 C           6.7069    3.4338   18.8564 C.3     1  UNL1        0.0880
     31 C           6.4047    1.9851   19.1015 C.3     1  UNL1        0.0964
     32 C           3.8273   -4.3502   19.7883 C.1     1  UNL1        0.1004
     33 N           3.5250   -5.7987   20.0336 N.1     1  UNL1       -0.1908
@<TRIPOS>BOND
     1    11    12    1
     2    12    13   ar
     3    13    14   ar
     4    14     1    1
     5     1     2   ar
     6     2     3   ar
     7     3     4   ar
     8     4     5   ar
     9     4     6    1
    10     6     7    1
    11     7     8   am
    12     8     9    2
    13     8    18    1
    14    18    19   ar
    15    19    20   ar
    16    20    32    1
    17    32    33    3
    18    20    21   ar
    19    21    22   ar
    20    22    23   ar
    21    23    24    1
    22    24    25    1
    23    25    26    1
    24    26    27    1
    25    27    28    1
    26    27    29    1
    27    27    30    1
    28    30    31    1
    29     7    10    1
    30    14    15   ar
    31    15    16   ar
    32    16    17   ar
    33    17    12   ar
    34     5     1   ar
    35    23    18   ar
    36    31    24    1
    37    10     3    1
@<TRIPOS>MOLECULE
*****
 33 37 0 0 0
SMALL
GASTEIGER

@<TRIPOS>ATOM
      1 N          -0.7082    2.6879   24.8629 N.ar    1  UNL1       -0.2286
      2 C           0.4341    3.5227   24.3647 C.ar    1  UNL1        0.0990
      3 C           1.6155    2.6201   24.1656 C.ar    1  UNL1        0.0338
      4 C           1.2033    1.2275   24.5407 C.ar    1  UNL1        0.0981
      5 N          -0.2328    1.2694   24.9717 N.ar    1  UNL1       -0.1680
      6 C           2.3847    0.3249   24.3416 C.3     1  UNL1        0.1414
      7 N           3.5271    1.1597   23.8434 N.am    1  UNL1       -0.2661
      8 C           4.9031    0.6632   23.5121 C.2     1  UNL1        0.2508
      9 O           5.9482    1.6210   23.0216 O.2     1  UNL1       -0.2698
     10 C           3.0516    2.5782   23.7346 C.3     1  UNL1        0.1236
     11 C          -5.5127    3.9715   23.3566 C.3     1  UNL1        0.0521
     12 C          -4.4867    3.8262   24.4410 C.ar    1  UNL1        0.0609
     13 C          -3.1105    3.3297   24.1098 C.ar    1  UNL1        0.0339
     14 C          -2.0844    3.1844   25.1942 C.ar    1  UNL1        0.0855
     15 C          -2.4343    3.5356   26.6099 C.ar    1  UNL1        0.0398
     16 C          -3.8105    4.0322   26.9411 C.ar    1  UNL1        0.1000
     17 N          -4.8367    4.1774   25.8567 N.ar    1  UNL1       -0.2480
     18 C           5.2342   -0.7911   23.6713 C.ar    1  UNL1        0.0676
     19 C           5.8365   -1.2872   24.9524 C.ar    1  UNL1        0.0160
     20 C           6.1676   -2.7416   25.1117 C.ar    1  UNL1        0.0687
     21 C           5.8966   -3.6997   23.9899 C.ar    1  UNL1        0.0115
     22 C           5.2943   -3.2036   22.7088 C.ar    1  UNL1        0.0154
     23 C           4.9632   -1.7493   22.5495 C.ar    1  UNL1        0.0523
     24 N           4.3609   -1.2532   21.2685 N.pl3   1  UNL1       -0.3070
     25 C           2.8701   -1.1859   21.1172 C.3     1  UNL1        0.0964
     26 C           2.2678   -0.6897   19.8362 C.3     1  UNL1        0.0880
     27 C           3.1564   -0.2609   18.7064 C.3     1  UNL1        0.2672
     28 F           3.5781    0.2534   17.3618 F       1  UNL1       -0.2042
     29 F           1.8120   -0.0150   18.0881 F       1  UNL1       -0.2042
     30 C           4.6472   -0.3281   18.8575 C.3     1  UNL1        0.0880
     31 C           5.2496   -0.8243   20.1386 C.3     1  UNL1        0.0964
     32 C           6.7699   -3.2376   26.3928 C.1     1  UNL1        0.1004
     33 N           7.3722   -3.7336   27.6739 N.1     1  UNL1       -0.1908
@<TRIPOS>BOND
     1    11    12    1
     2    12    13   ar
     3    13    14   ar
     4    14     1    1
     5     1     2   ar
     6     2     3   ar
     7     3     4   ar
     8     4     5   ar
     9     4     6    1
    10     6     7    1
    11     7     8   am
    12     8     9    2
    13     8    18    1
    14    18    19   ar
    15    19    20   ar
    16    20    32    1
    17    32    33    3
    18    20    21   ar
    19    21    22   ar
    20    22    23   ar
    21    23    24    1
    22    24    25    1
    23    25    26    1
    24    26    27    1
    25    27    28    1
    26    27    29    1
    27    27    30    1
    28    30    31    1
    29     7    10    1
    30    14    15   ar
    31    15    16   ar
    32    16    17   ar
    33    17    12   ar
    34     5     1   ar
    35    23    18   ar
    36    31    24    1
    37    10     3    1
