@<TRIPOS>MOLECULE
*****
 39 44 0 0 0
SMALL
GASTEIGER

@<TRIPOS>ATOM
      1 N           8.6434   -7.1678   26.7474 N.ar    1  UNL1       -0.2324
      2 N           9.2422   -8.0238   25.6709 N.ar    1  UNL1       -0.1662
      3 C           8.8968   -7.4113   24.3459 C.ar    1  UNL1        0.1263
      4 C           8.0845   -6.1768   24.6035 C.ar    1  UNL1        0.0923
      5 C           7.9280   -6.0263   26.0877 C.ar    1  UNL1        0.1668
      6 N           7.1541   -4.8694   26.6468 N.ar    1  UNL1       -0.1950
      7 C           6.5368   -3.8628   25.7217 C.ar    1  UNL1        0.2176
      8 N           5.7630   -2.7059   26.2808 N.pl3   1  UNL1       -0.3273
      9 N           6.6934   -4.0133   24.2375 N.ar    1  UNL1       -0.1808
     10 N           6.2013   -3.1857   23.0873 N.ar    1  UNL1       -0.1387
     11 C           6.6710   -3.8312   21.8174 C.ar    1  UNL1        0.2184
     12 N           7.4534   -5.0577   22.1827 N.ar    1  UNL1       -0.2032
     13 C           7.4673   -5.1703   23.6784 C.ar    1  UNL1        0.1729
     14 H           5.6603   -2.6071   27.2549 H       1  UNL1        0.1452
     15 H           5.3579   -2.0452   25.6736 H       1  UNL1        0.1452
     16 C           6.4050   -3.3369   20.4263 C.ar    1  UNL1        0.1828
     17 C           7.1958   -2.2929   19.6953 C.ar    1  UNL1        0.0440
     18 C           6.5811   -2.1107   18.3393 C.ar    1  UNL1        0.0439
     19 C           5.4103   -3.0422   18.2322 C.ar    1  UNL1        0.1798
     20 O           5.3014   -3.8001   19.5221 O.2     1  UNL1       -0.4472
     21 C           8.7427   -7.4107   28.2242 C.3     1  UNL1        0.1464
     22 C           9.4922   -6.4457   29.0943 C.3     1  UNL1        0.0989
     23 N           7.2414   -3.5103   31.6569 N.pl3   1  UNL1       -0.3046
     24 C           8.3647   -3.0360   30.7834 C.3     1  UNL1        0.1081
     25 C           9.1150   -4.0145   29.9292 C.3     1  UNL1        0.0939
     26 N           8.7419   -5.4672   29.9486 N.3     1  UNL1       -0.2681
     27 C           7.6186   -5.9415   30.8221 C.3     1  UNL1        0.0939
     28 C           6.8683   -4.9630   31.6764 C.3     1  UNL1        0.1081
     29 C           4.9906   -0.5748   34.2196 C.ar    1  UNL1        0.1388
     30 C           4.3005   -1.8020   33.7023 C.ar    1  UNL1        0.0382
     31 C           5.0508   -2.7806   32.8481 C.ar    1  UNL1        0.0176
     32 C           6.4912   -2.5318   32.5112 C.ar    1  UNL1        0.0481
     33 C           7.1812   -1.3046   33.0285 C.ar    1  UNL1        0.0176
     34 C           6.4310   -0.3261   33.8827 C.ar    1  UNL1        0.0382
     35 O           4.2404    0.4037   35.0738 O.3     1  UNL1       -0.4727
     36 C           4.6533    0.6261   36.4986 C.3     1  UNL1        0.2373
     37 C           3.6115    0.7495   37.5708 C.3     1  UNL1        0.1894
     38 C           1.9812    2.4595   38.6515 C.3     1  UNL1        0.1743
     39 O           2.5115    1.7601   37.4351 O.3     1  UNL1       -0.3471
@<TRIPOS>BOND
     1    38    39    1
     2    39    37    1
     3    37    36    1
     4    36    35    1
     5    35    29    1
     6    29    30   ar
     7    30    31   ar
     8    31    32   ar
     9    32    23    1
    10    23    24    1
    11    24    25    1
    12    25    26    1
    13    26    22    1
    14    22    21    1
    15    21     1    1
    16     1     2   ar
    17     2     3   ar
    18     3     4   ar
    19     4     5   ar
    20     5     6   ar
    21     6     7   ar
    22     7     8    1
    23     7     9   ar
    24     9    10   ar
    25    10    11   ar
    26    11    16    1
    27    16    17   ar
    28    17    18   ar
    29    18    19   ar
    30    19    20   ar
    31    11    12   ar
    32    12    13   ar
    33    26    27    1
    34    27    28    1
    35    32    33   ar
    36    33    34   ar
    37    34    29   ar
    38    28    23    1
    39     5     1   ar
    40    13     9   ar
    41    13     4   ar
    42    20    16   ar
    43     8    14    1
    44     8    15    1
@<TRIPOS>MOLECULE
*****
 39 44 0 0 0
SMALL
GASTEIGER

@<TRIPOS>ATOM
      1 N           7.3678   -5.8045   28.4368 N.ar    1  UNL1       -0.2324
      2 N           7.8395   -6.6040   29.6151 N.ar    1  UNL1       -0.1662
      3 C           7.5984   -5.7917   30.8528 C.ar    1  UNL1        0.1263
      4 C           6.9777   -4.4902   30.4395 C.ar    1  UNL1        0.0923
      5 C           6.8352   -4.4981   28.9463 C.ar    1  UNL1        0.1668
      6 N           6.2388   -3.3148   28.2435 N.ar    1  UNL1       -0.1950
      7 C           5.7849   -2.1234   29.0339 C.ar    1  UNL1        0.2176
      8 N           5.1886   -0.9400   28.3311 N.pl3   1  UNL1       -0.3273
      9 N           5.9274   -2.1154   30.5271 N.ar    1  UNL1       -0.1808
     10 N           5.5722   -1.0912   31.5639 N.ar    1  UNL1       -0.1387
     11 C           5.9490   -1.6416   32.9074 C.ar    1  UNL1        0.2184
     12 N           6.5372   -3.0060   32.7010 N.ar    1  UNL1       -0.2032
     13 C           6.5238   -3.2989   31.2299 C.ar    1  UNL1        0.1729
     14 H           5.0950   -0.9452   27.3511 H       1  UNL1        0.1452
     15 H           4.8907   -0.1581   28.8499 H       1  UNL1        0.1452
     16 C           5.7693   -0.9492   34.2259 C.ar    1  UNL1        0.1828
     17 C           6.8148   -0.1608   34.9574 C.ar    1  UNL1        0.0440
     18 C           6.2041    0.3520   36.2279 C.ar    1  UNL1        0.0439
     19 C           4.7812   -0.1196   36.2815 C.ar    1  UNL1        0.1798
     20 O           4.5124   -0.9238   35.0441 O.2     1  UNL1       -0.4472
     21 C           7.4196   -6.2357   27.0010 C.3     1  UNL1        0.1464
     22 C           8.3582   -5.5575   26.0477 C.3     1  UNL1        0.0989
     23 N           6.8137   -3.9222   22.1502 N.pl3   1  UNL1       -0.3046
     24 C           6.0422   -3.6964   23.4166 C.3     1  UNL1        0.1081
     25 C           6.5571   -4.2415   24.7157 C.3     1  UNL1        0.0939
     26 N           7.8434   -5.0124   24.7485 N.3     1  UNL1       -0.2681
     27 C           8.6149   -5.2382   23.4821 C.3     1  UNL1        0.0939
     28 C           8.1000   -4.6931   22.1829 C.3     1  UNL1        0.1081
     29 C           5.2690   -2.2869   18.2528 C.ar    1  UNL1        0.1388
     30 C           4.4141   -3.2088   19.0707 C.ar    1  UNL1        0.0382
     31 C           4.9290   -3.7540   20.3699 C.ar    1  UNL1        0.0176
     32 C           6.2988   -3.3771   20.8511 C.ar    1  UNL1        0.0481
     33 C           7.1537   -2.4551   20.0332 C.ar    1  UNL1        0.0176
     34 C           6.6388   -1.9100   18.7340 C.ar    1  UNL1        0.0382
     35 O           4.7541   -1.7417   16.9537 O.3     1  UNL1       -0.4727
     36 C           3.6386   -0.7389   16.9507 C.3     1  UNL1        0.2373
     37 C           3.4625    0.1905   18.1148 C.3     1  UNL1        0.1894
     38 C           1.0494    1.1028   18.4220 C.3     1  UNL1        0.1743
     39 O           2.1671    0.2087   18.8708 O.3     1  UNL1       -0.3471
@<TRIPOS>BOND
     1    38    39    1
     2    39    37    1
     3    37    36    1
     4    36    35    1
     5    35    29    1
     6    29    30   ar
     7    30    31   ar
     8    31    32   ar
     9    32    23    1
    10    23    24    1
    11    24    25    1
    12    25    26    1
    13    26    22    1
    14    22    21    1
    15    21     1    1
    16     1     2   ar
    17     2     3   ar
    18     3     4   ar
    19     4     5   ar
    20     5     6   ar
    21     6     7   ar
    22     7     8    1
    23     7     9   ar
    24     9    10   ar
    25    10    11   ar
    26    11    16    1
    27    16    17   ar
    28    17    18   ar
    29    18    19   ar
    30    19    20   ar
    31    11    12   ar
    32    12    13   ar
    33    26    27    1
    34    27    28    1
    35    32    33   ar
    36    33    34   ar
    37    34    29   ar
    38    28    23    1
    39     5     1   ar
    40    13     9   ar
    41    13     4   ar
    42    20    16   ar
    43     8    14    1
    44     8    15    1
@<TRIPOS>MOLECULE
*****
 39 44 0 0 0
SMALL
GASTEIGER

@<TRIPOS>ATOM
      1 N           8.5141   -7.2712   26.8163 N.ar    1  UNL1       -0.2324
      2 N           9.1400   -8.1298   25.7575 N.ar    1  UNL1       -0.1662
      3 C           8.8673   -7.4959   24.4257 C.ar    1  UNL1        0.1263
      4 C           8.0730   -6.2455   24.6614 C.ar    1  UNL1        0.0923
      5 C           7.8547   -6.1066   26.1389 C.ar    1  UNL1        0.1668
      6 N           7.0837   -4.9377   26.6765 N.ar    1  UNL1       -0.1950
      7 C           6.5309   -3.9076   25.7366 C.ar    1  UNL1        0.2176
      8 N           5.7599   -2.7386   26.2743 N.pl3   1  UNL1       -0.3273
      9 N           6.7492   -4.0464   24.2591 N.ar    1  UNL1       -0.1808
     10 N           6.3273   -3.1958   23.0979 N.ar    1  UNL1       -0.1387
     11 C           6.8376   -3.8391   21.8426 C.ar    1  UNL1        0.2184
     12 N           7.5749   -5.0873   22.2280 N.ar    1  UNL1       -0.2032
     13 C           7.5203   -5.2154   23.7215 C.ar    1  UNL1        0.1729
     14 H           5.6166   -2.6475   27.2440 H       1  UNL1        0.1452
     15 H           5.3971   -2.0625   25.6574 H       1  UNL1        0.1452
     16 C           6.6445   -3.3245   20.4468 C.ar    1  UNL1        0.1828
     17 C           7.6278   -2.5042   19.6656 C.ar    1  UNL1        0.0440
     18 C           7.0252   -2.2127   18.3233 C.ar    1  UNL1        0.0439
     19 C           5.6696   -2.8529   18.2748 C.ar    1  UNL1        0.1798
     20 O           5.4343   -3.5401   19.5873 O.2     1  UNL1       -0.4472
     21 C           8.5427   -7.5315   28.2933 C.3     1  UNL1        0.1464
     22 C           9.2658   -6.5872   29.2074 C.3     1  UNL1        0.0989
     23 N           7.0082   -3.2962   31.2863 N.pl3   1  UNL1       -0.3046
     24 C           6.7190   -4.7300   31.6187 C.3     1  UNL1        0.1081
     25 C           7.4715   -5.8270   30.9257 C.3     1  UNL1        0.0939
     26 N           8.5132   -5.4901   29.9003 N.3     1  UNL1       -0.2681
     27 C           8.8024   -4.0564   29.5679 C.3     1  UNL1        0.0939
     28 C           8.0499   -2.9594   30.2609 C.3     1  UNL1        0.1081
     29 C           4.7505   -0.0051   33.3652 C.ar    1  UNL1        0.1388
     30 C           5.8392    0.3323   32.3901 C.ar    1  UNL1        0.0382
     31 C           6.5918   -0.7647   31.6971 C.ar    1  UNL1        0.0176
     32 C           6.2556   -2.1992   31.9793 C.ar    1  UNL1        0.0481
     33 C           5.1669   -2.5364   32.9544 C.ar    1  UNL1        0.0176
     34 C           4.4144   -1.4394   33.6473 C.ar    1  UNL1        0.0382
     35 O           3.9979    1.0920   34.0582 O.3     1  UNL1       -0.4727
     36 C           2.6772    1.5531   33.5171 C.3     1  UNL1        0.2373
     37 C           2.4953    1.7380   32.0396 C.3     1  UNL1        0.1894
     38 C           2.5777   -0.3701   30.5234 C.3     1  UNL1        0.1743
     39 O           1.7880    0.6890   31.2338 O.3     1  UNL1       -0.3471
@<TRIPOS>BOND
     1    38    39    1
     2    39    37    1
     3    37    36    1
     4    36    35    1
     5    35    29    1
     6    29    30   ar
     7    30    31   ar
     8    31    32   ar
     9    32    23    1
    10    23    24    1
    11    24    25    1
    12    25    26    1
    13    26    22    1
    14    22    21    1
    15    21     1    1
    16     1     2   ar
    17     2     3   ar
    18     3     4   ar
    19     4     5   ar
    20     5     6   ar
    21     6     7   ar
    22     7     8    1
    23     7     9   ar
    24     9    10   ar
    25    10    11   ar
    26    11    16    1
    27    16    17   ar
    28    17    18   ar
    29    18    19   ar
    30    19    20   ar
    31    11    12   ar
    32    12    13   ar
    33    26    27    1
    34    27    28    1
    35    32    33   ar
    36    33    34   ar
    37    34    29   ar
    38    28    23    1
    39     5     1   ar
    40    13     9   ar
    41    13     4   ar
    42    20    16   ar
    43     8    14    1
    44     8    15    1
@<TRIPOS>MOLECULE
*****
 39 44 0 0 0
SMALL
GASTEIGER

@<TRIPOS>ATOM
      1 N           4.7426   -1.6404   33.1883 N.ar    1  UNL1       -0.2324
      2 N           5.0379   -0.8296   34.4152 N.ar    1  UNL1       -0.1662
      3 C           4.2222    0.4274   34.3473 C.ar    1  UNL1        0.1263
      4 C           3.4229    0.3935   33.0785 C.ar    1  UNL1        0.0923
      5 C           3.7445   -0.8846   32.3621 C.ar    1  UNL1        0.1668
      6 N           3.0870   -1.1949   31.0502 N.ar    1  UNL1       -0.1950
      7 C           2.1078   -0.2272   30.4545 C.ar    1  UNL1        0.2176
      8 N           1.4503   -0.5375   29.1425 N.pl3   1  UNL1       -0.3273
      9 N           1.7861    1.0508   31.1709 N.ar    1  UNL1       -0.1808
     10 N           0.8687    2.1880   30.8318 N.ar    1  UNL1       -0.1387
     11 C           0.9592    3.2012   31.9342 C.ar    1  UNL1        0.2184
     12 N           1.9326    2.6901   32.9546 N.ar    1  UNL1       -0.2032
     13 C           2.4437    1.3611   32.4829 C.ar    1  UNL1        0.1729
     14 H           1.6614   -1.3763   28.6723 H       1  UNL1        0.1452
     15 H           0.8076    0.0976   28.7516 H       1  UNL1        0.1452
     16 C           0.2081    4.4978   32.0039 C.ar    1  UNL1        0.1828
     17 C           0.3446    5.6482   31.0510 C.ar    1  UNL1        0.0440
     18 C          -0.5904    6.7330   31.4970 C.ar    1  UNL1        0.0439
     19 C          -1.3048    6.2530   32.7255 C.ar    1  UNL1        0.1798
     20 O          -0.8113    4.8716   33.0389 O.2     1  UNL1       -0.4472
     21 C           5.3405   -2.9732   32.8473 C.3     1  UNL1        0.1464
     22 C           6.6803   -3.0446   32.1765 C.3     1  UNL1        0.0989
     23 N           6.9424   -3.7998   27.7482 N.pl3   1  UNL1       -0.3046
     24 C           6.4173   -2.4896   28.2557 C.3     1  UNL1        0.1081
     25 C           6.3300   -2.2379   29.7319 C.3     1  UNL1        0.0939
     26 N           6.7677   -3.2964   30.7004 N.3     1  UNL1       -0.2681
     27 C           7.2927   -4.6066   30.1928 C.3     1  UNL1        0.0939
     28 C           7.3800   -4.8583   28.7167 C.3     1  UNL1        0.1081
     29 C           7.2043   -4.5549   23.3196 C.ar    1  UNL1        0.1388
     30 C           6.7417   -3.2213   23.8270 C.ar    1  UNL1        0.0382
     31 C           6.6544   -2.9696   25.3031 C.ar    1  UNL1        0.0176
     32 C           7.0297   -4.0516   26.2720 C.ar    1  UNL1        0.0481
     33 C           7.4923   -5.3851   25.7646 C.ar    1  UNL1        0.0176
     34 C           7.5796   -5.6368   24.2884 C.ar    1  UNL1        0.0382
     35 O           7.2917   -4.8066   21.8435 O.3     1  UNL1       -0.4727
     36 C           6.9782   -3.7049   20.8751 C.3     1  UNL1        0.2373
     37 C           5.8227   -3.8443   19.9288 C.3     1  UNL1        0.1894
     38 C           3.4731   -4.8061   19.3773 C.3     1  UNL1        0.1743
     39 O           4.6692   -4.7367   20.2797 O.3     1  UNL1       -0.3471
@<TRIPOS>BOND
     1    38    39    1
     2    39    37    1
     3    37    36    1
     4    36    35    1
     5    35    29    1
     6    29    30   ar
     7    30    31   ar
     8    31    32   ar
     9    32    23    1
    10    23    24    1
    11    24    25    1
    12    25    26    1
    13    26    22    1
    14    22    21    1
    15    21     1    1
    16     1     2   ar
    17     2     3   ar
    18     3     4   ar
    19     4     5   ar
    20     5     6   ar
    21     6     7   ar
    22     7     8    1
    23     7     9   ar
    24     9    10   ar
    25    10    11   ar
    26    11    16    1
    27    16    17   ar
    28    17    18   ar
    29    18    19   ar
    30    19    20   ar
    31    11    12   ar
    32    12    13   ar
    33    26    27    1
    34    27    28    1
    35    32    33   ar
    36    33    34   ar
    37    34    29   ar
    38    28    23    1
    39     5     1   ar
    40    13     9   ar
    41    13     4   ar
    42    20    16   ar
    43     8    14    1
    44     8    15    1
@<TRIPOS>MOLECULE
*****
 39 44 0 0 0
SMALL
GASTEIGER

@<TRIPOS>ATOM
      1 N           7.6856   -3.4917   28.5189 N.ar    1  UNL1       -0.2324
      2 N           6.5893   -2.4855   28.7077 N.ar    1  UNL1       -0.1662
      3 C           5.8730   -2.3295   27.3990 C.ar    1  UNL1        0.1263
      4 C           6.5266   -3.2393   26.4015 C.ar    1  UNL1        0.0923
      5 C           7.6469   -3.9575   27.0936 C.ar    1  UNL1        0.1668
      6 N           8.4870   -4.9430   26.3367 N.ar    1  UNL1       -0.1950
      7 C           8.2069   -5.2102   24.8874 C.ar    1  UNL1        0.2176
      8 N           9.0470   -6.1957   24.1305 N.pl3   1  UNL1       -0.3273
      9 N           7.0866   -4.4920   24.1953 N.ar    1  UNL1       -0.1808
     10 N           6.5773   -4.5488   22.7855 N.ar    1  UNL1       -0.1387
     11 C           5.4224   -3.5985   22.6713 C.ar    1  UNL1        0.2184
     12 N           5.2179   -2.9543   24.0104 N.ar    1  UNL1       -0.2032
     13 C           6.2465   -3.5065   24.9523 C.ar    1  UNL1        0.1729
     14 H           9.7823   -6.6671   24.5848 H       1  UNL1        0.1452
     15 H           8.8632   -6.3711   23.1793 H       1  UNL1        0.1452
     16 C           4.6138   -3.3381   21.4350 C.ar    1  UNL1        0.1828
     17 C           4.3472   -4.3199   20.3327 C.ar    1  UNL1        0.0440
     18 C           3.4985   -3.6387   19.3004 C.ar    1  UNL1        0.0439
     19 C           3.2406   -2.2359   19.7646 C.ar    1  UNL1        0.1798
     20 O           3.9299   -2.0500   21.0839 O.2     1  UNL1       -0.4472
     21 C           8.6511   -3.9513   29.5708 C.3     1  UNL1        0.1464
     22 C           8.1508   -4.3354   30.9317 C.3     1  UNL1        0.0989
     23 N           6.1847   -1.2557   33.5584 N.pl3   1  UNL1       -0.3046
     24 C           5.3761   -2.3855   32.9931 C.3     1  UNL1        0.1081
     25 C           6.0316   -3.4121   32.1176 C.3     1  UNL1        0.0939
     26 N           7.4955   -3.3088   31.8073 N.3     1  UNL1       -0.2681
     27 C           8.3040   -2.1789   32.3726 C.3     1  UNL1        0.0939
     28 C           7.6486   -1.1523   33.2482 C.3     1  UNL1        0.1081
     29 C           4.2184    1.8241   36.1850 C.ar    1  UNL1        0.1388
     30 C           4.6427    2.1866   34.7927 C.ar    1  UNL1        0.0382
     31 C           5.2982    1.1601   33.9172 C.ar    1  UNL1        0.0176
     32 C           5.5293   -0.2291   34.4340 C.ar    1  UNL1        0.0481
     33 C           5.1049   -0.5915   35.8262 C.ar    1  UNL1        0.0176
     34 C           4.4495    0.4350   36.7018 C.ar    1  UNL1        0.0382
     35 O           3.5630    2.8507   37.0606 O.3     1  UNL1       -0.4727
     36 C           3.2649    2.5321   38.4957 C.3     1  UNL1        0.2373
     37 C           1.8611    2.6427   39.0126 C.3     1  UNL1        0.1894
     38 C           1.1552    0.1664   39.3583 C.3     1  UNL1        0.1743
     39 O           0.8870    1.5254   38.7829 O.3     1  UNL1       -0.3471
@<TRIPOS>BOND
     1    38    39    1
     2    39    37    1
     3    37    36    1
     4    36    35    1
     5    35    29    1
     6    29    30   ar
     7    30    31   ar
     8    31    32   ar
     9    32    23    1
    10    23    24    1
    11    24    25    1
    12    25    26    1
    13    26    22    1
    14    22    21    1
    15    21     1    1
    16     1     2   ar
    17     2     3   ar
    18     3     4   ar
    19     4     5   ar
    20     5     6   ar
    21     6     7   ar
    22     7     8    1
    23     7     9   ar
    24     9    10   ar
    25    10    11   ar
    26    11    16    1
    27    16    17   ar
    28    17    18   ar
    29    18    19   ar
    30    19    20   ar
    31    11    12   ar
    32    12    13   ar
    33    26    27    1
    34    27    28    1
    35    32    33   ar
    36    33    34   ar
    37    34    29   ar
    38    28    23    1
    39     5     1   ar
    40    13     9   ar
    41    13     4   ar
    42    20    16   ar
    43     8    14    1
    44     8    15    1
@<TRIPOS>MOLECULE
*****
 39 44 0 0 0
SMALL
GASTEIGER

@<TRIPOS>ATOM
      1 N          -0.5401    2.8877   23.5862 N.ar    1  UNL1       -0.2324
      2 N          -1.0000    3.0453   22.1672 N.ar    1  UNL1       -0.1662
      3 C          -0.2192    2.0868   21.3177 C.ar    1  UNL1        0.1263
      4 C           0.7232    1.3368   22.2117 C.ar    1  UNL1        0.0923
      5 C           0.5249    1.8318   23.6138 C.ar    1  UNL1        0.1668
      6 N           1.3397    1.2570   24.7343 N.ar    1  UNL1       -0.1950
      7 C           2.3529    0.1873   24.4529 C.ar    1  UNL1        0.2176
      8 N           3.1677   -0.3875   25.5735 N.pl3   1  UNL1       -0.3273
      9 N           2.5512   -0.3077   23.0509 N.ar    1  UNL1       -0.1808
     10 N           3.4682   -1.3444   22.4728 N.ar    1  UNL1       -0.1387
     11 C           3.2201   -1.4104   20.9949 C.ar    1  UNL1        0.2184
     12 N           2.1498   -0.4145   20.6596 N.ar    1  UNL1       -0.2032
     13 C           1.7364    0.2671   21.9303 C.ar    1  UNL1        0.1729
     14 H           3.0376   -0.0626   26.4937 H       1  UNL1        0.1452
     15 H           3.8327   -1.0896   25.3888 H       1  UNL1        0.1452
     16 C           3.9196   -2.3138   20.0229 C.ar    1  UNL1        0.1828
     17 C           3.5758   -3.7476   19.7474 C.ar    1  UNL1        0.0440
     18 C           4.5293   -4.2619   18.7100 C.ar    1  UNL1        0.0439
     19 C           5.4625   -3.1459   18.3444 C.ar    1  UNL1        0.1798
     20 O           5.0857   -1.9419   19.1558 O.2     1  UNL1       -0.4472
     21 C          -1.0549    3.6518   24.7699 C.3     1  UNL1        0.1464
     22 C          -1.6789    2.9203   25.9212 C.3     1  UNL1        0.0989
     23 N           0.8817    1.4976   29.3372 N.pl3   1  UNL1       -0.3046
     24 C          -0.1022    0.5633   28.6977 C.3     1  UNL1        0.1081
     25 C          -0.9557    1.0376   27.5590 C.3     1  UNL1        0.0939
     26 N          -0.8253    2.4461   27.0599 N.3     1  UNL1       -0.2681
     27 C           0.1586    3.3804   27.6994 C.3     1  UNL1        0.0939
     28 C           1.0121    2.9061   28.8381 C.3     1  UNL1        0.1081
     29 C           3.4423    0.0747   32.7532 C.ar    1  UNL1        0.1388
     30 C           3.3493   -0.7385   31.4962 C.ar    1  UNL1        0.0382
     31 C           2.4957   -0.2642   30.3576 C.ar    1  UNL1        0.0176
     32 C           1.7352    1.0234   30.4759 C.ar    1  UNL1        0.0481
     33 C           1.8283    1.8365   31.7328 C.ar    1  UNL1        0.0176
     34 C           2.6819    1.3622   32.8715 C.ar    1  UNL1        0.0382
     35 O           4.2958   -0.3995   33.8919 O.3     1  UNL1       -0.4727
     36 C           5.1125   -1.6493   33.7471 C.3     1  UNL1        0.2373
     37 C           6.4359   -1.6031   33.0424 C.3     1  UNL1        0.1894
     38 C           6.4899   -3.3054   31.0804 C.3     1  UNL1        0.1743
     39 O           6.9957   -2.8455   32.4156 O.3     1  UNL1       -0.3471
@<TRIPOS>BOND
     1    38    39    1
     2    39    37    1
     3    37    36    1
     4    36    35    1
     5    35    29    1
     6    29    30   ar
     7    30    31   ar
     8    31    32   ar
     9    32    23    1
    10    23    24    1
    11    24    25    1
    12    25    26    1
    13    26    22    1
    14    22    21    1
    15    21     1    1
    16     1     2   ar
    17     2     3   ar
    18     3     4   ar
    19     4     5   ar
    20     5     6   ar
    21     6     7   ar
    22     7     8    1
    23     7     9   ar
    24     9    10   ar
    25    10    11   ar
    26    11    16    1
    27    16    17   ar
    28    17    18   ar
    29    18    19   ar
    30    19    20   ar
    31    11    12   ar
    32    12    13   ar
    33    26    27    1
    34    27    28    1
    35    32    33   ar
    36    33    34   ar
    37    34    29   ar
    38    28    23    1
    39     5     1   ar
    40    13     9   ar
    41    13     4   ar
    42    20    16   ar
    43     8    14    1
    44     8    15    1
@<TRIPOS>MOLECULE
*****
 39 44 0 0 0
SMALL
GASTEIGER

@<TRIPOS>ATOM
      1 N          -0.4317    2.8407   23.5108 N.ar    1  UNL1       -0.2324
      2 N          -0.8560    3.0260   22.0841 N.ar    1  UNL1       -0.1662
      3 C          -0.0801    2.0584   21.2404 C.ar    1  UNL1        0.1263
      4 C           0.8236    1.2751   22.1457 C.ar    1  UNL1        0.0923
      5 C           0.6063    1.7586   23.5490 C.ar    1  UNL1        0.1668
      6 N           1.3818    1.1510   24.6801 N.ar    1  UNL1       -0.1950
      7 C           2.3746    0.0599   24.4081 C.ar    1  UNL1        0.2176
      8 N           3.1500   -0.5476   25.5392 N.pl3   1  UNL1       -0.3273
      9 N           2.5919   -0.4236   23.0048 N.ar    1  UNL1       -0.1808
     10 N           3.4960   -1.4759   22.4345 N.ar    1  UNL1       -0.1387
     11 C           3.2793   -1.5187   20.9509 C.ar    1  UNL1        0.2184
     12 N           2.2412   -0.4928   20.6043 N.ar    1  UNL1       -0.2032
     13 C           1.8164    0.1840   21.8737 C.ar    1  UNL1        0.1729
     14 H           3.0074   -0.2303   26.4602 H       1  UNL1        0.1452
     15 H           3.8016   -1.2637   25.3607 H       1  UNL1        0.1452
     16 C           3.9779   -2.4277   19.9836 C.ar    1  UNL1        0.1828
     17 C           4.9301   -2.0033   18.9051 C.ar    1  UNL1        0.0440
     18 C           5.3876   -3.2341   18.1800 C.ar    1  UNL1        0.0439
     19 C           4.7183   -4.4192   18.8104 C.ar    1  UNL1        0.1798
     20 O           3.8469   -3.9209   19.9251 O.2     1  UNL1       -0.4472
     21 C          -0.9539    3.6035   24.6921 C.3     1  UNL1        0.1464
     22 C          -1.6232    2.8746   25.8194 C.3     1  UNL1        0.0989
     23 N           0.5423    2.2883   29.7202 N.pl3   1  UNL1       -0.3046
     24 C           0.5730    3.6242   29.0388 C.3     1  UNL1        0.1081
     25 C          -0.1489    3.8196   27.7386 C.3     1  UNL1        0.0939
     26 N          -0.9013    2.6791   27.1197 N.3     1  UNL1       -0.2681
     27 C          -0.9320    1.3432   27.8010 C.3     1  UNL1        0.0939
     28 C          -0.2101    1.1478   29.1013 C.3     1  UNL1        0.1081
     29 C           2.7080    1.7020   33.6211 C.ar    1  UNL1        0.1388
     30 C           2.9847    0.7874   32.4648 C.ar    1  UNL1        0.0382
     31 C           2.2628    0.9828   31.1645 C.ar    1  UNL1        0.0176
     32 C           1.2642    2.0929   31.0205 C.ar    1  UNL1        0.0481
     33 C           0.9875    3.0074   32.1767 C.ar    1  UNL1        0.0176
     34 C           1.7094    2.8120   33.4770 C.ar    1  UNL1        0.0382
     35 O           3.4298    1.5066   34.9214 O.3     1  UNL1       -0.4727
     36 C           3.8327    2.6961   35.7415 C.3     1  UNL1        0.2373
     37 C           3.0871    3.0264   37.0005 C.3     1  UNL1        0.1894
     38 C           2.3673    1.0357   38.5069 C.3     1  UNL1        0.1743
     39 O           2.0223    2.0991   37.5068 O.3     1  UNL1       -0.3471
@<TRIPOS>BOND
     1    38    39    1
     2    39    37    1
     3    37    36    1
     4    36    35    1
     5    35    29    1
     6    29    30   ar
     7    30    31   ar
     8    31    32   ar
     9    32    23    1
    10    23    24    1
    11    24    25    1
    12    25    26    1
    13    26    22    1
    14    22    21    1
    15    21     1    1
    16     1     2   ar
    17     2     3   ar
    18     3     4   ar
    19     4     5   ar
    20     5     6   ar
    21     6     7   ar
    22     7     8    1
    23     7     9   ar
    24     9    10   ar
    25    10    11   ar
    26    11    16    1
    27    16    17   ar
    28    17    18   ar
    29    18    19   ar
    30    19    20   ar
    31    11    12   ar
    32    12    13   ar
    33    26    27    1
    34    27    28    1
    35    32    33   ar
    36    33    34   ar
    37    34    29   ar
    38    28    23    1
    39     5     1   ar
    40    13     9   ar
    41    13     4   ar
    42    20    16   ar
    43     8    14    1
    44     8    15    1
@<TRIPOS>MOLECULE
*****
 39 44 0 0 0
SMALL
GASTEIGER

@<TRIPOS>ATOM
      1 N           0.9524    1.9949   25.5590 N.ar    1  UNL1       -0.2324
      2 N           0.2994    2.4582   24.2906 N.ar    1  UNL1       -0.1662
      3 C           0.8471    1.6375   23.1608 C.ar    1  UNL1        0.1263
      4 C           1.8387    0.6670   23.7310 C.ar    1  UNL1        0.0923
      5 C           1.9037    0.8880   25.2132 C.ar    1  UNL1        0.1668
      6 N           2.8207    0.0526   26.0565 N.ar    1  UNL1       -0.1950
      7 C           3.6728   -1.0037   25.4176 C.ar    1  UNL1        0.2176
      8 N           4.5899   -1.8391   26.2608 N.pl3   1  UNL1       -0.3273
      9 N           3.6078   -1.2247   23.9353 N.ar    1  UNL1       -0.1808
     10 N           4.3233   -2.1841   23.0312 N.ar    1  UNL1       -0.1387
     11 C           3.8485   -1.9417   21.6292 C.ar    1  UNL1        0.2184
     12 N           2.8395   -0.8324   21.6668 N.ar    1  UNL1       -0.2032
     13 C           2.6907   -0.3892   23.0921 C.ar    1  UNL1        0.1729
     14 H           4.6326   -1.6941   27.2337 H       1  UNL1        0.1452
     15 H           5.1491   -2.5324   25.8415 H       1  UNL1        0.1452
     16 C           4.3029   -2.6791   20.4045 C.ar    1  UNL1        0.1828
     17 C           3.9972   -4.1096   20.0725 C.ar    1  UNL1        0.0440
     18 C           4.6481   -4.4300   18.7596 C.ar    1  UNL1        0.0439
     19 C           5.3560   -3.1976   18.2802 C.ar    1  UNL1        0.1798
     20 O           5.1427   -2.1153   19.2968 O.2     1  UNL1       -0.4472
     21 C           0.6986    2.5425   26.9323 C.3     1  UNL1        0.1464
     22 C           0.1202    1.6585   27.9971 C.3     1  UNL1        0.0989
     23 N           2.5221    0.7069   31.6815 N.pl3   1  UNL1       -0.3046
     24 C           2.4210   -0.2975   30.5720 C.3     1  UNL1        0.1081
     25 C           1.6204    0.0198   29.3439 C.3     1  UNL1        0.0939
     26 N           0.9208    1.3413   29.2253 N.3     1  UNL1       -0.2681
     27 C           1.0219    2.3457   30.3348 C.3     1  UNL1        0.0939
     28 C           1.8226    2.0284   31.5629 C.3     1  UNL1        0.1081
     29 C           4.9241   -0.2449   35.3660 C.ar    1  UNL1        0.1388
     30 C           4.1780    1.0530   35.2716 C.ar    1  UNL1        0.0382
     31 C           3.3773    1.3703   34.0435 C.ar    1  UNL1        0.0176
     32 C           3.3227    0.3896   32.9096 C.ar    1  UNL1        0.0481
     33 C           4.0688   -0.9082   33.0041 C.ar    1  UNL1        0.0176
     34 C           4.8695   -1.2255   34.2322 C.ar    1  UNL1        0.0382
     35 O           5.7247   -0.5621   36.5941 O.3     1  UNL1       -0.4727
     36 C           7.1343   -0.0649   36.7195 C.3     1  UNL1        0.2373
     37 C           7.4121    1.2348   37.4148 C.3     1  UNL1        0.1894
     38 C           8.1436    2.3253   39.6567 C.3     1  UNL1        0.1743
     39 O           8.3212    1.2681   38.6075 O.3     1  UNL1       -0.3471
@<TRIPOS>BOND
     1    38    39    1
     2    39    37    1
     3    37    36    1
     4    36    35    1
     5    35    29    1
     6    29    30   ar
     7    30    31   ar
     8    31    32   ar
     9    32    23    1
    10    23    24    1
    11    24    25    1
    12    25    26    1
    13    26    22    1
    14    22    21    1
    15    21     1    1
    16     1     2   ar
    17     2     3   ar
    18     3     4   ar
    19     4     5   ar
    20     5     6   ar
    21     6     7   ar
    22     7     8    1
    23     7     9   ar
    24     9    10   ar
    25    10    11   ar
    26    11    16    1
    27    16    17   ar
    28    17    18   ar
    29    18    19   ar
    30    19    20   ar
    31    11    12   ar
    32    12    13   ar
    33    26    27    1
    34    27    28    1
    35    32    33   ar
    36    33    34   ar
    37    34    29   ar
    38    28    23    1
    39     5     1   ar
    40    13     9   ar
    41    13     4   ar
    42    20    16   ar
    43     8    14    1
    44     8    15    1
@<TRIPOS>MOLECULE
*****
 39 44 0 0 0
SMALL
GASTEIGER

@<TRIPOS>ATOM
      1 N           4.3856   -1.2931   18.3139 N.ar    1  UNL1       -0.2324
      2 N           5.3834   -2.0853   17.5222 N.ar    1  UNL1       -0.1662
      3 C           6.1401   -2.9622   18.4752 C.ar    1  UNL1        0.1263
      4 C           5.6100   -2.7121   19.8559 C.ar    1  UNL1        0.0923
      5 C           4.5256   -1.6805   19.7562 C.ar    1  UNL1        0.1668
      6 N           3.8057   -1.2272   20.9916 N.ar    1  UNL1       -0.1950
      7 C           4.1703   -1.8055   22.3269 C.ar    1  UNL1        0.2176
      8 N           3.4504   -1.3522   23.5623 N.pl3   1  UNL1       -0.3273
      9 N           5.2547   -2.8371   22.4266 N.ar    1  UNL1       -0.1808
     10 N           5.8279   -3.5810   23.5962 N.ar    1  UNL1       -0.1387
     11 C           6.9019   -4.4940   23.0837 C.ar    1  UNL1        0.2184
     12 N           6.9926   -4.3144   21.5972 N.ar    1  UNL1       -0.2032
     13 C           5.9745   -3.2904   21.1911 C.ar    1  UNL1        0.1729
     14 H           2.7387   -0.6752   23.4968 H       1  UNL1        0.1452
     15 H           3.6897   -1.7318   24.4386 H       1  UNL1        0.1452
     16 C           7.7386   -5.4235   23.9121 C.ar    1  UNL1        0.1828
     17 C           8.4435   -6.6520   23.4184 C.ar    1  UNL1        0.0440
     18 C           9.1577   -7.2753   24.5808 C.ar    1  UNL1        0.0439
     19 C           8.8941   -6.4321   25.7930 C.ar    1  UNL1        0.1798
     20 O           8.0170   -5.2875   25.3798 O.2     1  UNL1       -0.4472
     21 C           3.4176   -0.2898   17.7604 C.3     1  UNL1        0.1464
     22 C           3.3678    1.0972   18.3294 C.3     1  UNL1        0.0989
     23 N          -0.4119    2.6081   20.2477 N.pl3   1  UNL1       -0.3046
     24 C          -0.0693    1.1493   20.3127 C.3     1  UNL1        0.1081
     25 C           1.1907    0.6457   19.6733 C.3     1  UNL1        0.0939
     26 N           2.1079    1.6009   18.9688 N.3     1  UNL1       -0.2681
     27 C           1.7652    3.0598   18.9038 C.3     1  UNL1        0.0939
     28 C           0.5052    3.5634   19.5433 C.3     1  UNL1        0.1081
     29 C          -4.1918    4.1190   22.1662 C.ar    1  UNL1        0.1388
     30 C          -2.9563    3.9247   22.9943 C.ar    1  UNL1        0.0382
     31 C          -1.6963    3.4211   22.3548 C.ar    1  UNL1        0.0176
     32 C          -1.6719    3.1117   20.8872 C.ar    1  UNL1        0.0481
     33 C          -2.9074    3.3061   20.0592 C.ar    1  UNL1        0.0176
     34 C          -4.1674    3.8097   20.6987 C.ar    1  UNL1        0.0382
     35 O          -5.4518    4.6226   22.8057 O.3     1  UNL1       -0.4727
     36 C          -5.3784    5.4769   24.0364 C.3     1  UNL1        0.2373
     37 C          -5.7872    4.9142   25.3655 C.3     1  UNL1        0.1894
     38 C          -3.7958    3.9160   26.7027 C.3     1  UNL1        0.1743
     39 O          -5.0673    3.7255   25.9301 O.3     1  UNL1       -0.3471
@<TRIPOS>BOND
     1    38    39    1
     2    39    37    1
     3    37    36    1
     4    36    35    1
     5    35    29    1
     6    29    30   ar
     7    30    31   ar
     8    31    32   ar
     9    32    23    1
    10    23    24    1
    11    24    25    1
    12    25    26    1
    13    26    22    1
    14    22    21    1
    15    21     1    1
    16     1     2   ar
    17     2     3   ar
    18     3     4   ar
    19     4     5   ar
    20     5     6   ar
    21     6     7   ar
    22     7     8    1
    23     7     9   ar
    24     9    10   ar
    25    10    11   ar
    26    11    16    1
    27    16    17   ar
    28    17    18   ar
    29    18    19   ar
    30    19    20   ar
    31    11    12   ar
    32    12    13   ar
    33    26    27    1
    34    27    28    1
    35    32    33   ar
    36    33    34   ar
    37    34    29   ar
    38    28    23    1
    39     5     1   ar
    40    13     9   ar
    41    13     4   ar
    42    20    16   ar
    43     8    14    1
    44     8    15    1
