@<TRIPOS>MOLECULE
*****
 33 37 0 0 0
SMALL
GASTEIGER

@<TRIPOS>ATOM
      1 C           6.7754   -4.1932   31.4043 C.2     1  UNL1        0.2493
      2 O           7.3466   -5.4492   31.9928 O.2     1  UNL1       -0.2699
      3 N           6.7483   -4.0071   29.9161 N.am    1  UNL1       -0.2715
      4 C           6.1771   -2.7511   29.3276 C.3     1  UNL1        0.1003
      5 C           6.1501   -2.5650   27.8395 C.3     1  UNL1        0.0650
      6 C           6.6943   -3.6348   26.9398 C.ar    1  UNL1        0.0367
      7 C           7.2655   -4.8907   27.5282 C.ar    1  UNL1        0.0108
      8 C           7.7260   -5.7641   26.3990 C.ar    1  UNL1        0.0145
      9 C           8.3692   -7.1189   26.3759 C.ar    1  UNL1        0.0012
     10 C           8.7259   -7.7576   25.0664 C.ar    1  UNL1        0.0001
     11 C           8.4392   -7.0414   23.7799 C.ar    1  UNL1        0.0015
     12 C           7.7960   -5.6865   23.8030 C.ar    1  UNL1        0.0172
     13 C           7.4394   -5.0479   25.1125 C.ar    1  UNL1        0.0597
     14 N           6.8017   -3.7319   25.4468 N.ar    1  UNL1       -0.3256
     15 C           7.2925   -5.0769   29.0164 C.3     1  UNL1        0.1216
     16 C           5.1426   -0.9837   34.1031 C.ar    1  UNL1        0.0000
     17 C           4.2877   -2.1598   33.7339 C.ar    1  UNL1        0.0001
     18 C           4.8320   -3.2296   32.8343 C.ar    1  UNL1        0.0045
     19 C           6.2312   -3.1234   32.3039 C.ar    1  UNL1        0.0536
     20 C           7.0859   -1.9474   32.6731 C.ar    1  UNL1        0.0045
     21 C           6.5416   -0.8775   33.5727 C.ar    1  UNL1        0.0001
     22 C           3.5097    2.2256   36.8018 C.ar    1  UNL1       -0.0222
     23 C           3.2967    2.3121   35.3196 C.ar    1  UNL1       -0.0043
     24 C           3.8410    1.2423   34.4200 C.ar    1  UNL1       -0.0003
     25 C           4.5983    0.0860   35.0026 C.ar    1  UNL1       -0.0000
     26 C           4.8113   -0.0004   36.4849 C.ar    1  UNL1       -0.0003
     27 C           4.2670    1.0694   37.3845 C.ar    1  UNL1       -0.0043
     28 C           1.5913    3.8481   37.4635 C.3     1  UNL1        0.0050
     29 C           2.9654    3.2955   37.7014 C.3     1  UNL1        0.0264
     30 C           6.3507   -2.6951   24.4611 C.3     1  UNL1        0.1474
     31 C           4.8986   -2.5823   24.1027 C.2     1  UNL1        0.0732
     32 O           4.3456   -3.3742   22.9550 O.co2   1  UNL1       -0.5472
     33 O           3.9994   -1.6777   24.8920 O.co2   1  UNL1       -0.5472
@<TRIPOS>UNITY_ATOM_ATTR
32 1
charge -1
@<TRIPOS>BOND
     1    28    29    1
     2    29    22    1
     3    22    23   ar
     4    23    24   ar
     5    24    25   ar
     6    25    16    1
     7    16    17   ar
     8    17    18   ar
     9    18    19   ar
    10    19     1    1
    11     1     2    2
    12     1     3   am
    13     3     4    1
    14     4     5    1
    15     5     6    1
    16     6     7   ar
    17     7     8   ar
    18     8     9   ar
    19     9    10   ar
    20    10    11   ar
    21    11    12   ar
    22    12    13   ar
    23    13    14   ar
    24    14    30    1
    25    30    31    1
    26    31    32   ar
    27    31    33   ar
    28     7    15    1
    29    19    20   ar
    30    20    21   ar
    31    25    26   ar
    32    26    27   ar
    33    27    22   ar
    34    21    16   ar
    35    15     3    1
    36    14     6   ar
    37    13     8   ar
@<TRIPOS>MOLECULE
*****
 33 37 0 0 0
SMALL
GASTEIGER

@<TRIPOS>ATOM
      1 C           1.9886    0.6299   30.0420 C.2     1  UNL1        0.2493
      2 O           2.8195   -0.5359   29.5943 O.2     1  UNL1       -0.2699
      3 N           2.1711    1.1962   31.4191 N.am    1  UNL1       -0.2715
      4 C           1.3402    2.3620   31.8669 C.3     1  UNL1        0.1003
      5 C           1.5227    2.9281   33.2438 C.3     1  UNL1        0.0650
      6 C           2.5362    2.3285   34.1730 C.ar    1  UNL1        0.0367
      7 C           3.3671    1.1628   33.7253 C.ar    1  UNL1        0.0108
      8 C           4.2806    0.7841   34.8532 C.ar    1  UNL1        0.0145
      9 C           5.3205   -0.2887   34.9856 C.ar    1  UNL1        0.0012
     10 C           6.0941   -0.4297   36.2630 C.ar    1  UNL1        0.0001
     11 C           5.8277    0.5021   37.4079 C.ar    1  UNL1        0.0015
     12 C           4.7878    1.5750   37.2754 C.ar    1  UNL1        0.0172
     13 C           4.0143    1.7160   35.9981 C.ar    1  UNL1        0.0597
     14 N           2.9362    2.6704   35.5777 N.ar    1  UNL1       -0.3256
     15 C           3.1846    0.5966   32.3483 C.3     1  UNL1        0.1216
     16 C          -1.0518    2.4290   27.2546 C.ar    1  UNL1        0.0000
     17 C           0.2968    3.0681   27.4070 C.ar    1  UNL1        0.0001
     18 C           1.3102    2.4683   28.3362 C.ar    1  UNL1        0.0045
     19 C           0.9751    1.2296   29.1129 C.ar    1  UNL1        0.0536
     20 C          -0.3734    0.5906   28.9605 C.ar    1  UNL1        0.0045
     21 C          -1.3869    1.1903   28.0313 C.ar    1  UNL1        0.0001
     22 C          -4.0920    4.2282   24.4672 C.ar    1  UNL1       -0.0222
     23 C          -4.3674    4.1695   25.9405 C.ar    1  UNL1       -0.0043
     24 C          -3.3540    3.5697   26.8696 C.ar    1  UNL1       -0.0003
     25 C          -2.0651    3.0287   26.3255 C.ar    1  UNL1       -0.0000
     26 C          -1.7897    3.0876   24.8521 C.ar    1  UNL1       -0.0003
     27 C          -2.8031    3.6873   23.9230 C.ar    1  UNL1       -0.0043
     28 C          -6.0273    3.9380   22.7583 C.3     1  UNL1        0.0050
     29 C          -5.1054    4.8280   23.5380 C.3     1  UNL1        0.0264
     30 C           2.3593    3.7732   36.4151 C.3     1  UNL1        0.1474
     31 C           2.0330    3.5269   37.8582 C.2     1  UNL1        0.0732
     32 O           2.9655    4.0072   38.9306 O.co2   1  UNL1       -0.5472
     33 O           0.7743    2.8004   38.2292 O.co2   1  UNL1       -0.5472
@<TRIPOS>UNITY_ATOM_ATTR
32 1
charge -1
@<TRIPOS>BOND
     1    28    29    1
     2    29    22    1
     3    22    23   ar
     4    23    24   ar
     5    24    25   ar
     6    25    16    1
     7    16    17   ar
     8    17    18   ar
     9    18    19   ar
    10    19     1    1
    11     1     2    2
    12     1     3   am
    13     3     4    1
    14     4     5    1
    15     5     6    1
    16     6     7   ar
    17     7     8   ar
    18     8     9   ar
    19     9    10   ar
    20    10    11   ar
    21    11    12   ar
    22    12    13   ar
    23    13    14   ar
    24    14    30    1
    25    30    31    1
    26    31    32   ar
    27    31    33   ar
    28     7    15    1
    29    19    20   ar
    30    20    21   ar
    31    25    26   ar
    32    26    27   ar
    33    27    22   ar
    34    21    16   ar
    35    15     3    1
    36    14     6   ar
    37    13     8   ar
@<TRIPOS>MOLECULE
*****
 33 37 0 0 0
SMALL
GASTEIGER

@<TRIPOS>ATOM
      1 C          -1.8160    3.1342   26.5510 C.2     1  UNL1        0.2493
      2 O          -3.0925    3.7944   26.9808 O.2     1  UNL1       -0.2699
      3 N          -1.4638    3.0589   25.0948 N.am    1  UNL1       -0.2715
      4 C          -0.1873    2.3988   24.6651 C.3     1  UNL1        0.1003
      5 C           0.1648    2.3235   23.2089 C.3     1  UNL1        0.0650
      6 C          -0.7597    2.9084   22.1826 C.ar    1  UNL1        0.0367
      7 C          -2.0362    3.5685   22.6123 C.ar    1  UNL1        0.0108
      8 C          -2.7449    4.0523   21.3821 C.ar    1  UNL1        0.0145
      9 C          -4.0454    4.7751   21.1918 C.ar    1  UNL1        0.0012
     10 C          -4.5075    5.1367   19.8113 C.ar    1  UNL1        0.0001
     11 C          -3.6690    4.7755   18.6211 C.ar    1  UNL1        0.0015
     12 C          -2.3685    4.0528   18.8114 C.ar    1  UNL1        0.0172
     13 C          -1.9064    3.6912   20.1919 C.ar    1  UNL1        0.0597
     14 N          -0.6795    2.9842   20.6866 N.ar    1  UNL1       -0.3256
     15 C          -2.3883    3.6438   24.0685 C.3     1  UNL1        0.1216
     16 C           0.9574    1.3794   29.6299 C.ar    1  UNL1        0.0000
     17 C          -0.1093    0.5270   29.0086 C.ar    1  UNL1        0.0001
     18 C          -1.0337    1.1120   27.9824 C.ar    1  UNL1        0.0045
     19 C          -0.8915    2.5493   27.5773 C.ar    1  UNL1        0.0536
     20 C           0.1751    3.4016   28.1986 C.ar    1  UNL1        0.0045
     21 C           1.0996    2.8166   29.2248 C.ar    1  UNL1        0.0001
     22 C           3.7307   -0.3756   32.7086 C.ar    1  UNL1       -0.0222
     23 C           3.4841   -1.1027   31.4200 C.ar    1  UNL1       -0.0043
     24 C           2.5597   -0.5177   30.3938 C.ar    1  UNL1       -0.0003
     25 C           1.8818    0.7944   30.6561 C.ar    1  UNL1       -0.0000
     26 C           2.1284    1.5215   31.9447 C.ar    1  UNL1       -0.0003
     27 C           3.0528    0.9365   32.9710 C.ar    1  UNL1       -0.0043
     28 C           4.7130   -0.3731   35.1139 C.3     1  UNL1        0.0050
     29 C           4.6551   -0.9606   33.7349 C.3     1  UNL1        0.0264
     30 C           0.4324    2.4473   19.8349 C.3     1  UNL1        0.1474
     31 C           0.4789    0.9871   19.4952 C.2     1  UNL1        0.0732
     32 O           0.0596   -0.0332   20.5118 O.co2   1  UNL1       -0.5472
     33 O           0.9448    0.5470   18.1390 O.co2   1  UNL1       -0.5472
@<TRIPOS>UNITY_ATOM_ATTR
32 1
charge -1
@<TRIPOS>BOND
     1    28    29    1
     2    29    22    1
     3    22    23   ar
     4    23    24   ar
     5    24    25   ar
     6    25    16    1
     7    16    17   ar
     8    17    18   ar
     9    18    19   ar
    10    19     1    1
    11     1     2    2
    12     1     3   am
    13     3     4    1
    14     4     5    1
    15     5     6    1
    16     6     7   ar
    17     7     8   ar
    18     8     9   ar
    19     9    10   ar
    20    10    11   ar
    21    11    12   ar
    22    12    13   ar
    23    13    14   ar
    24    14    30    1
    25    30    31    1
    26    31    32   ar
    27    31    33   ar
    28     7    15    1
    29    19    20   ar
    30    20    21   ar
    31    25    26   ar
    32    26    27   ar
    33    27    22   ar
    34    21    16   ar
    35    15     3    1
    36    14     6   ar
    37    13     8   ar
@<TRIPOS>MOLECULE
*****
 33 37 0 0 0
SMALL
GASTEIGER

@<TRIPOS>ATOM
      1 C           3.0093   -0.3235   27.0943 C.2     1  UNL1        0.2493
      2 O           3.6814   -1.5114   27.7164 O.2     1  UNL1       -0.2699
      3 N           2.9358   -0.2000   25.6011 N.am    1  UNL1       -0.2715
      4 C           2.2638    0.9880   24.9790 C.3     1  UNL1        0.1003
      5 C           2.1903    1.1114   23.4859 C.3     1  UNL1        0.0650
      6 C           2.7889    0.0469   22.6149 C.ar    1  UNL1        0.0367
      7 C           3.4610   -1.1411   23.2371 C.ar    1  UNL1        0.0108
      8 C           3.9570   -2.0249   22.1313 C.ar    1  UNL1        0.0145
      9 C           4.6943   -3.3311   22.1445 C.ar    1  UNL1        0.0012
     10 C           5.0660   -3.9956   20.8522 C.ar    1  UNL1        0.0001
     11 C           4.7005   -3.3539   19.5466 C.ar    1  UNL1        0.0015
     12 C           3.9633   -2.0477   19.5333 C.ar    1  UNL1        0.0172
     13 C           3.5915   -1.3832   20.8257 C.ar    1  UNL1        0.0597
     14 N           2.8696   -0.1027   21.1246 N.ar    1  UNL1       -0.3256
     15 C           3.5344   -1.2645   24.7302 C.3     1  UNL1        0.1216
     16 C           1.2136    2.8703   29.7069 C.ar    1  UNL1        0.0000
     17 C           2.6372    2.9884   29.2490 C.ar    1  UNL1        0.0001
     18 C           3.2358    1.9238   28.3782 C.ar    1  UNL1        0.0045
     19 C           2.4107    0.7411   27.9651 C.ar    1  UNL1        0.0536
     20 C           0.9872    0.6230   28.4230 C.ar    1  UNL1        0.0045
     21 C           0.3886    1.6876   29.2938 C.ar    1  UNL1        0.0001
     22 C          -0.5819    6.0641   32.3194 C.ar    1  UNL1       -0.0222
     23 C          -0.2830    6.3542   30.8784 C.ar    1  UNL1       -0.0043
     24 C           0.3155    5.2895   30.0075 C.ar    1  UNL1       -0.0003
     25 C           0.6151    3.9349   30.5777 C.ar    1  UNL1       -0.0000
     26 C           0.3162    3.6449   32.0187 C.ar    1  UNL1       -0.0003
     27 C          -0.2823    4.7095   32.8895 C.ar    1  UNL1       -0.0043
     28 C          -1.7474    6.7695   34.5317 C.3     1  UNL1        0.0050
     29 C          -1.1804    7.1288   33.1902 C.3     1  UNL1        0.0264
     30 C           2.3241    0.8592   20.1111 C.3     1  UNL1        0.1474
     31 C           0.9160    0.7093   19.6166 C.2     1  UNL1        0.0732
     32 O           0.5948    0.9752   18.1757 O.co2   1  UNL1       -0.5472
     33 O          -0.1710    0.2935   20.5629 O.co2   1  UNL1       -0.5472
@<TRIPOS>UNITY_ATOM_ATTR
32 1
charge -1
@<TRIPOS>BOND
     1    28    29    1
     2    29    22    1
     3    22    23   ar
     4    23    24   ar
     5    24    25   ar
     6    25    16    1
     7    16    17   ar
     8    17    18   ar
     9    18    19   ar
    10    19     1    1
    11     1     2    2
    12     1     3   am
    13     3     4    1
    14     4     5    1
    15     5     6    1
    16     6     7   ar
    17     7     8   ar
    18     8     9   ar
    19     9    10   ar
    20    10    11   ar
    21    11    12   ar
    22    12    13   ar
    23    13    14   ar
    24    14    30    1
    25    30    31    1
    26    31    32   ar
    27    31    33   ar
    28     7    15    1
    29    19    20   ar
    30    20    21   ar
    31    25    26   ar
    32    26    27   ar
    33    27    22   ar
    34    21    16   ar
    35    15     3    1
    36    14     6   ar
    37    13     8   ar
@<TRIPOS>MOLECULE
*****
 33 37 0 0 0
SMALL
GASTEIGER

@<TRIPOS>ATOM
      1 C          -0.9534    2.4748   25.6916 C.2     1  UNL1        0.2493
      2 O          -0.1609    1.7382   24.6527 O.2     1  UNL1       -0.2699
      3 N          -2.2443    3.1410   25.3174 N.am    1  UNL1       -0.2715
      4 C          -3.0368    3.8777   26.3563 C.3     1  UNL1        0.1003
      5 C          -4.3276    4.5439   25.9821 C.3     1  UNL1        0.0650
      6 C          -4.8258    4.4734   24.5690 C.ar    1  UNL1        0.0367
      7 C          -4.0333    3.7368   23.5301 C.ar    1  UNL1        0.0108
      8 C          -4.7708    3.8363   22.2277 C.ar    1  UNL1        0.0145
      9 C          -4.4669    3.3032   20.8590 C.ar    1  UNL1        0.0012
     10 C          -5.4113    3.5683   19.7242 C.ar    1  UNL1        0.0001
     11 C          -6.6596    4.3664   19.9582 C.ar    1  UNL1        0.0015
     12 C          -6.9635    4.8995   21.3269 C.ar    1  UNL1        0.0172
     13 C          -6.0191    4.6344   22.4617 C.ar    1  UNL1        0.0597
     14 N          -6.0531    5.0282   23.9087 N.ar    1  UNL1       -0.3256
     15 C          -2.7426    3.0706   23.9043 C.3     1  UNL1        0.1216
     16 C           0.5413    2.6865   29.9309 C.ar    1  UNL1        0.0000
     17 C           0.6316    3.8919   29.0427 C.ar    1  UNL1        0.0001
     18 C           0.1334    3.8213   27.6296 C.ar    1  UNL1        0.0045
     19 C          -0.4552    2.5453   27.1047 C.ar    1  UNL1        0.0536
     20 C          -0.5455    1.3399   27.9929 C.ar    1  UNL1        0.0045
     21 C          -0.0473    1.4105   29.4060 C.ar    1  UNL1        0.0001
     22 C           2.0359    2.8983   34.1701 C.ar    1  UNL1       -0.0222
     23 C           1.1881    4.0055   33.6175 C.ar    1  UNL1       -0.0043
     24 C           0.6899    3.9349   32.2044 C.ar    1  UNL1       -0.0003
     25 C           1.0395    2.7571   31.3439 C.ar    1  UNL1       -0.0000
     26 C           1.8873    1.6499   31.8965 C.ar    1  UNL1       -0.0003
     27 C           2.3855    1.7205   33.3095 C.ar    1  UNL1       -0.0043
     28 C           1.9398    3.9601   36.5393 C.3     1  UNL1        0.0050
     29 C           2.5341    2.9689   35.5831 C.3     1  UNL1        0.0264
     30 C          -7.1260    5.8350   24.5778 C.3     1  UNL1        0.1474
     31 C          -8.5395    5.3336   24.5974 C.2     1  UNL1        0.0732
     32 O          -9.5917    6.0855   25.3574 O.co2   1  UNL1       -0.5472
     33 O          -8.9010    4.0801   23.8569 O.co2   1  UNL1       -0.5472
@<TRIPOS>UNITY_ATOM_ATTR
32 1
charge -1
@<TRIPOS>BOND
     1    28    29    1
     2    29    22    1
     3    22    23   ar
     4    23    24   ar
     5    24    25   ar
     6    25    16    1
     7    16    17   ar
     8    17    18   ar
     9    18    19   ar
    10    19     1    1
    11     1     2    2
    12     1     3   am
    13     3     4    1
    14     4     5    1
    15     5     6    1
    16     6     7   ar
    17     7     8   ar
    18     8     9   ar
    19     9    10   ar
    20    10    11   ar
    21    11    12   ar
    22    12    13   ar
    23    13    14   ar
    24    14    30    1
    25    30    31    1
    26    31    32   ar
    27    31    33   ar
    28     7    15    1
    29    19    20   ar
    30    20    21   ar
    31    25    26   ar
    32    26    27   ar
    33    27    22   ar
    34    21    16   ar
    35    15     3    1
    36    14     6   ar
    37    13     8   ar
@<TRIPOS>MOLECULE
*****
 33 37 0 0 0
SMALL
GASTEIGER

@<TRIPOS>ATOM
      1 C           1.3618    1.3449   26.5093 C.2     1  UNL1        0.2493
      2 O           0.1701    2.2334   26.3084 O.2     1  UNL1       -0.2699
      3 N           2.0390    0.7194   25.3259 N.am    1  UNL1       -0.2715
      4 C           3.2307   -0.1690   25.5267 C.3     1  UNL1        0.1003
      5 C           3.9078   -0.7945   24.3433 C.3     1  UNL1        0.0650
      6 C           3.3931   -0.5314   22.9591 C.ar    1  UNL1        0.0367
      7 C           2.2014    0.3570   22.7583 C.ar    1  UNL1        0.0108
      8 C           1.9222    0.4326   21.2864 C.ar    1  UNL1        0.0145
      9 C           0.8717    1.1592   20.5001 C.ar    1  UNL1        0.0012
     10 C           0.8404    1.0440   19.0049 C.ar    1  UNL1        0.0001
     11 C           1.8596    0.2022   18.2960 C.ar    1  UNL1        0.0015
     12 C           2.9102   -0.5244   19.0824 C.ar    1  UNL1        0.0172
     13 C           2.9415   -0.4092   20.5776 C.ar    1  UNL1        0.0597
     14 N           3.8505   -1.0050   21.6113 N.ar    1  UNL1       -0.3256
     15 C           1.5243    0.9825   23.9417 C.3     1  UNL1        0.1216
     16 C           2.9060    0.5555   30.6617 C.ar    1  UNL1        0.0000
     17 C           1.9922   -0.4336   30.0006 C.ar    1  UNL1        0.0001
     18 C           1.4775   -0.1704   28.6165 C.ar    1  UNL1        0.0045
     19 C           1.8766    1.0818   27.8934 C.ar    1  UNL1        0.0536
     20 C           2.7903    2.0708   28.5545 C.ar    1  UNL1        0.0045
     21 C           3.3050    1.8077   29.9386 C.ar    1  UNL1        0.0001
     22 C           4.4500   -0.2340   34.8141 C.ar    1  UNL1       -0.0222
     23 C           3.9529    1.1325   34.4460 C.ar    1  UNL1       -0.0043
     24 C           3.4382    1.3956   33.0618 C.ar    1  UNL1       -0.0003
     25 C           3.4206    0.2923   32.0458 C.ar    1  UNL1       -0.0000
     26 C           3.9178   -1.0742   32.4140 C.ar    1  UNL1       -0.0003
     27 C           4.4324   -1.3374   33.7980 C.ar    1  UNL1       -0.0043
     28 C           6.3346   -0.0288   36.5907 C.3     1  UNL1        0.0050
     29 C           4.9647   -0.4972   36.1982 C.3     1  UNL1        0.0264
     30 C           5.0129   -1.9146   21.3442 C.3     1  UNL1        0.1474
     31 C           4.7820   -3.2714   20.7480 C.2     1  UNL1        0.0732
     32 O           4.9016   -3.4697   19.2659 O.co2   1  UNL1       -0.5472
     33 O           4.4315   -4.4302   21.6337 O.co2   1  UNL1       -0.5472
@<TRIPOS>UNITY_ATOM_ATTR
32 1
charge -1
@<TRIPOS>BOND
     1    28    29    1
     2    29    22    1
     3    22    23   ar
     4    23    24   ar
     5    24    25   ar
     6    25    16    1
     7    16    17   ar
     8    17    18   ar
     9    18    19   ar
    10    19     1    1
    11     1     2    2
    12     1     3   am
    13     3     4    1
    14     4     5    1
    15     5     6    1
    16     6     7   ar
    17     7     8   ar
    18     8     9   ar
    19     9    10   ar
    20    10    11   ar
    21    11    12   ar
    22    12    13   ar
    23    13    14   ar
    24    14    30    1
    25    30    31    1
    26    31    32   ar
    27    31    33   ar
    28     7    15    1
    29    19    20   ar
    30    20    21   ar
    31    25    26   ar
    32    26    27   ar
    33    27    22   ar
    34    21    16   ar
    35    15     3    1
    36    14     6   ar
    37    13     8   ar
@<TRIPOS>MOLECULE
*****
 33 37 0 0 0
SMALL
GASTEIGER

@<TRIPOS>ATOM
      1 C           5.4082   -3.3518   20.6920 C.2     1  UNL1        0.2493
      2 O           5.6185   -4.5060   19.7574 O.2     1  UNL1       -0.2699
      3 N           5.9420   -3.4139   22.0925 N.am    1  UNL1       -0.2715
      4 C           5.7316   -2.2597   23.0271 C.3     1  UNL1        0.1003
      5 C           6.2654   -2.3218   24.4275 C.3     1  UNL1        0.0650
      6 C           7.0095   -3.5381   24.8933 C.ar    1  UNL1        0.0367
      7 C           7.2198   -4.6923   23.9587 C.ar    1  UNL1        0.0108
      8 C           7.9865   -5.7509   24.6946 C.ar    1  UNL1        0.0145
      9 C           8.4787   -7.1055   24.2790 C.ar    1  UNL1        0.0012
     10 C           9.2344   -7.9601   25.2529 C.ar    1  UNL1        0.0001
     11 C           9.4979   -7.4602   26.6423 C.ar    1  UNL1        0.0015
     12 C           9.0057   -6.1056   27.0579 C.ar    1  UNL1        0.0172
     13 C           8.2500   -5.2510   26.0841 C.ar    1  UNL1        0.0597
     14 N           7.6462   -3.8834   26.2069 N.ar    1  UNL1       -0.3256
     15 C           6.6861   -4.6302   22.5583 C.3     1  UNL1        0.1216
     16 C           3.1761    0.2973   19.2948 C.ar    1  UNL1        0.0000
     17 C           4.6574    0.1964   19.0806 C.ar    1  UNL1        0.0001
     18 C           5.4014   -1.0200   19.5464 C.ar    1  UNL1        0.0045
     19 C           4.6641   -2.1355   20.2263 C.ar    1  UNL1        0.0536
     20 C           3.1829   -2.0346   20.4404 C.ar    1  UNL1        0.0045
     21 C           2.4389   -0.8182   19.9747 C.ar    1  UNL1        0.0001
     22 C           0.9441    3.9464   17.8976 C.ar    1  UNL1       -0.0222
     23 C           2.4208    4.0214   18.1503 C.ar    1  UNL1       -0.0043
     24 C           3.1648    2.8050   18.6160 C.ar    1  UNL1       -0.0003
     25 C           2.4321    1.5136   18.8291 C.ar    1  UNL1       -0.0000
     26 C           0.9555    1.4386   18.5763 C.ar    1  UNL1       -0.0003
     27 C           0.2115    2.6549   18.1106 C.ar    1  UNL1       -0.0043
     28 C          -0.8324    5.0421   16.3505 C.3     1  UNL1        0.0050
     29 C           0.2002    5.1628   17.4318 C.3     1  UNL1        0.0264
     30 C           7.6741   -3.0137   27.4288 C.3     1  UNL1        0.1474
     31 C           6.5740   -3.1106   28.4437 C.2     1  UNL1        0.0732
     32 O           6.5624   -4.2390   29.4319 O.co2   1  UNL1       -0.5472
     33 O           5.4852   -2.0791   28.4704 O.co2   1  UNL1       -0.5472
@<TRIPOS>UNITY_ATOM_ATTR
32 1
charge -1
@<TRIPOS>BOND
     1    28    29    1
     2    29    22    1
     3    22    23   ar
     4    23    24   ar
     5    24    25   ar
     6    25    16    1
     7    16    17   ar
     8    17    18   ar
     9    18    19   ar
    10    19     1    1
    11     1     2    2
    12     1     3   am
    13     3     4    1
    14     4     5    1
    15     5     6    1
    16     6     7   ar
    17     7     8   ar
    18     8     9   ar
    19     9    10   ar
    20    10    11   ar
    21    11    12   ar
    22    12    13   ar
    23    13    14   ar
    24    14    30    1
    25    30    31    1
    26    31    32   ar
    27    31    33   ar
    28     7    15    1
    29    19    20   ar
    30    20    21   ar
    31    25    26   ar
    32    26    27   ar
    33    27    22   ar
    34    21    16   ar
    35    15     3    1
    36    14     6   ar
    37    13     8   ar
@<TRIPOS>MOLECULE
*****
 33 37 0 0 0
SMALL
GASTEIGER

@<TRIPOS>ATOM
      1 C           3.0837   -0.1082   18.7205 C.2     1  UNL1        0.2493
      2 O           3.3502   -0.1487   17.2450 O.2     1  UNL1       -0.2699
      3 N           2.0213    0.7993   19.2663 N.am    1  UNL1       -0.2715
      4 C           1.7548    0.8397   20.7419 C.3     1  UNL1        0.1003
      5 C           0.6924    1.7472   21.2875 C.3     1  UNL1        0.0650
      6 C          -0.1035    2.6142   20.3576 C.ar    1  UNL1        0.0367
      7 C           0.1629    2.5738   18.8820 C.ar    1  UNL1        0.0108
      8 C          -0.7752    3.5356   18.2150 C.ar    1  UNL1        0.0145
      9 C          -0.9682    3.9153   16.7768 C.ar    1  UNL1        0.0012
     10 C          -2.0073    4.9299   16.4019 C.ar    1  UNL1        0.0001
     11 C          -2.8536    5.5649   17.4653 C.ar    1  UNL1        0.0015
     12 C          -2.6606    5.1852   18.9036 C.ar    1  UNL1        0.0172
     13 C          -1.6214    4.1705   19.2784 C.ar    1  UNL1        0.0597
     14 N          -1.2063    3.6011   20.6026 N.ar    1  UNL1       -0.3256
     15 C           1.2253    1.6663   18.3364 C.3     1  UNL1        0.1216
     16 C           5.4714   -2.7093   21.5105 C.ar    1  UNL1        0.0000
     17 C           4.2281   -3.2455   20.8649 C.ar    1  UNL1        0.0001
     18 C           3.4322   -2.3785   19.9349 C.ar    1  UNL1        0.0045
     19 C           3.8796   -0.9752   19.6505 C.ar    1  UNL1        0.0536
     20 C           5.1229   -0.4391   20.2962 C.ar    1  UNL1        0.0045
     21 C           5.9187   -1.3061   21.2262 C.ar    1  UNL1        0.0001
     22 C           7.8589   -5.3105   24.3004 C.ar    1  UNL1       -0.0222
     23 C           8.2368   -5.2199   22.8516 C.ar    1  UNL1       -0.0043
     24 C           7.4410   -4.3529   21.9217 C.ar    1  UNL1       -0.0003
     25 C           6.2672   -3.5763   22.4404 C.ar    1  UNL1       -0.0000
     26 C           5.8893   -3.6669   23.8893 C.ar    1  UNL1       -0.0003
     27 C           6.6851   -4.5339   24.8192 C.ar    1  UNL1       -0.0043
     28 C           8.2917   -7.6226   25.4036 C.3     1  UNL1        0.0050
     29 C           8.6547   -6.1775   25.2304 C.3     1  UNL1        0.0264
     30 C          -1.7913    3.9562   21.9374 C.3     1  UNL1        0.1474
     31 C          -3.2085    3.5843   22.2580 C.2     1  UNL1        0.0732
     32 O          -3.9984    2.7429   21.2997 O.co2   1  UNL1       -0.5472
     33 O          -3.8361    4.0537   23.5370 O.co2   1  UNL1       -0.5472
@<TRIPOS>UNITY_ATOM_ATTR
32 1
charge -1
@<TRIPOS>BOND
     1    28    29    1
     2    29    22    1
     3    22    23   ar
     4    23    24   ar
     5    24    25   ar
     6    25    16    1
     7    16    17   ar
     8    17    18   ar
     9    18    19   ar
    10    19     1    1
    11     1     2    2
    12     1     3   am
    13     3     4    1
    14     4     5    1
    15     5     6    1
    16     6     7   ar
    17     7     8   ar
    18     8     9   ar
    19     9    10   ar
    20    10    11   ar
    21    11    12   ar
    22    12    13   ar
    23    13    14   ar
    24    14    30    1
    25    30    31    1
    26    31    32   ar
    27    31    33   ar
    28     7    15    1
    29    19    20   ar
    30    20    21   ar
    31    25    26   ar
    32    26    27   ar
    33    27    22   ar
    34    21    16   ar
    35    15     3    1
    36    14     6   ar
    37    13     8   ar
@<TRIPOS>MOLECULE
*****
 33 37 0 0 0
SMALL
GASTEIGER

@<TRIPOS>ATOM
      1 C           1.9564    1.1196   30.0494 C.2     1  UNL1        0.2493
      2 O           1.9167    1.5130   31.4964 O.2     1  UNL1       -0.2699
      3 N           3.0326    0.2011   29.5511 N.am    1  UNL1       -0.2715
      4 C           3.0724   -0.1922   28.1042 C.3     1  UNL1        0.1003
      5 C           4.1485   -1.1107   27.6060 C.3     1  UNL1        0.0650
      6 C           5.1849   -1.6359   28.5547 C.ar    1  UNL1        0.0367
      7 C           5.1452   -1.2426   30.0017 C.ar    1  UNL1        0.0108
      8 C           6.2929   -1.9137   30.6962 C.ar    1  UNL1        0.0145
      9 C           6.7526   -1.8934   32.1238 C.ar    1  UNL1        0.0012
     10 C           7.9614   -2.6812   32.5338 C.ar    1  UNL1        0.0001
     11 C           8.7105   -3.4893   31.5160 C.ar    1  UNL1        0.0015
     12 C           8.2508   -3.5097   30.0884 C.ar    1  UNL1        0.0172
     13 C           7.0420   -2.7219   29.6785 C.ar    1  UNL1        0.0597
     14 N           6.3572   -2.5502   28.3550 N.ar    1  UNL1       -0.3256
     15 C           4.0690   -0.3241   30.4999 C.3     1  UNL1        0.1216
     16 C          -1.1526    2.6951   27.2029 C.ar    1  UNL1        0.0000
     17 C           0.0345    3.5400   27.5597 C.ar    1  UNL1        0.0001
     18 C           1.0708    3.0148   28.5086 C.ar    1  UNL1        0.0045
     19 C           0.9201    1.6447   29.1006 C.ar    1  UNL1        0.0536
     20 C          -0.2670    0.8000   28.7437 C.ar    1  UNL1        0.0045
     21 C          -1.3033    1.3252   27.7949 C.ar    1  UNL1        0.0001
     22 C          -4.2614    4.2707   24.3565 C.ar    1  UNL1       -0.0222
     23 C          -4.5342    4.2549   25.8314 C.ar    1  UNL1       -0.0043
     24 C          -3.4979    3.7297   26.7802 C.ar    1  UNL1       -0.0003
     25 C          -2.1888    3.2203   26.2541 C.ar    1  UNL1       -0.0000
     26 C          -1.9161    3.2362   24.7792 C.ar    1  UNL1       -0.0003
     27 C          -2.9523    3.7613   23.8304 C.ar    1  UNL1       -0.0043
     28 C          -6.7108    4.2997   23.4906 C.3     1  UNL1        0.0050
     29 C          -5.2977    4.7959   23.4077 C.3     1  UNL1        0.0264
     30 C           6.7719   -3.1818   27.0592 C.3     1  UNL1        0.1474
     31 C           6.7128   -4.6719   26.8985 C.2     1  UNL1        0.0732
     32 O           7.3242   -5.3211   25.6922 O.co2   1  UNL1       -0.5472
     33 O           6.0422   -5.5131   27.9438 O.co2   1  UNL1       -0.5472
@<TRIPOS>UNITY_ATOM_ATTR
32 1
charge -1
@<TRIPOS>BOND
     1    28    29    1
     2    29    22    1
     3    22    23   ar
     4    23    24   ar
     5    24    25   ar
     6    25    16    1
     7    16    17   ar
     8    17    18   ar
     9    18    19   ar
    10    19     1    1
    11     1     2    2
    12     1     3   am
    13     3     4    1
    14     4     5    1
    15     5     6    1
    16     6     7   ar
    17     7     8   ar
    18     8     9   ar
    19     9    10   ar
    20    10    11   ar
    21    11    12   ar
    22    12    13   ar
    23    13    14   ar
    24    14    30    1
    25    30    31    1
    26    31    32   ar
    27    31    33   ar
    28     7    15    1
    29    19    20   ar
    30    20    21   ar
    31    25    26   ar
    32    26    27   ar
    33    27    22   ar
    34    21    16   ar
    35    15     3    1
    36    14     6   ar
    37    13     8   ar
