@<TRIPOS>MOLECULE
*****
 24 27 0 0 0
SMALL
GASTEIGER

@<TRIPOS>ATOM
      1 C          -4.5428  -18.8634   21.4861 C.ar    1  UNL1        0.1536
      2 C          -5.3592  -19.9057   20.7811 C.ar    1  UNL1        0.1332
      3 N          -6.8492  -19.9330   20.9512 N.ar    1  UNL1       -0.2393
      4 C          -7.5229  -18.9179   21.8262 C.ar    1  UNL1        0.1021
      5 C          -6.7066  -17.8756   22.5313 C.ar    1  UNL1        0.1346
      6 N          -5.2165  -17.8483   22.3612 N.ar    1  UNL1       -0.2243
      7 C          -9.0130  -18.9452   21.9963 C.ar    1  UNL1        0.0223
      8 C          -9.8811  -18.0645   21.1473 C.ar    1  UNL1        0.0222
      9 C         -11.3712  -18.0917   21.3174 C.ar    1  UNL1        0.0989
     10 N         -11.9932  -18.9998   22.3365 N.ar    1  UNL1       -0.2423
     11 C         -11.1251  -19.8806   23.1855 C.ar    1  UNL1        0.0989
     12 C          -9.6351  -19.8533   23.0154 C.ar    1  UNL1        0.0222
     13 C          -7.3802  -16.8605   23.4063 C.ar    1  UNL1        0.1645
     14 C          -7.0416  -15.4014   23.4859 C.ar    1  UNL1        0.0423
     15 C          -7.9629  -14.7654   24.4843 C.ar    1  UNL1        0.0438
     16 C          -8.8710  -15.8315   25.0217 C.ar    1  UNL1        0.1797
     17 O          -8.5109  -17.1263   24.3555 O.2     1  UNL1       -0.4488
     18 O          -3.3118  -17.2101   19.3064 O.2     1  UNL1       -0.2747
     19 C          -2.4372  -18.0095   20.2262 C.2     1  UNL1        0.2267
     20 N          -3.0527  -18.8361   21.3160 N.am    1  UNL1       -0.2681
     21 H          -2.4787  -19.3608   21.9197 H       1  UNL1        0.1563
     22 C          -0.9471  -17.9822   20.0561 C.3     1  UNL1        0.0769
     23 C           0.3399  -18.6937   19.7605 C.3     1  UNL1        0.0096
     24 C           0.3468  -17.2234   20.0571 C.3     1  UNL1        0.0096
@<TRIPOS>BOND
     1    18    19    2
     2    19    20   am
     3    20     1    1
     4     1     2   ar
     5     2     3   ar
     6     3     4   ar
     7     4     7    1
     8     7     8   ar
     9     8     9   ar
    10     9    10   ar
    11    10    11   ar
    12    11    12   ar
    13     4     5   ar
    14     5    13    1
    15    13    14   ar
    16    14    15   ar
    17    15    16   ar
    18    16    17   ar
    19     5     6   ar
    20    19    22    1
    21    22    23    1
    22    23    24    1
    23     6     1   ar
    24    24    22    1
    25    12     7   ar
    26    17    13   ar
    27    20    21    1
@<TRIPOS>MOLECULE
*****
 24 27 0 0 0
SMALL
GASTEIGER

@<TRIPOS>ATOM
      1 C          -6.8193  -18.6471   20.6035 C.ar    1  UNL1        0.1536
      2 C          -8.0194  -19.3475   20.0384 C.ar    1  UNL1        0.1332
      3 N          -9.3451  -19.2420   20.7322 N.ar    1  UNL1       -0.2393
      4 C          -9.4707  -18.4362   21.9911 C.ar    1  UNL1        0.1021
      5 C          -8.2707  -17.7358   22.5562 C.ar    1  UNL1        0.1346
      6 N          -6.9450  -17.8413   21.8624 N.ar    1  UNL1       -0.2243
      7 C         -10.7965  -18.3307   22.6848 C.ar    1  UNL1        0.0223
      8 C         -11.0753  -19.1641   23.9004 C.ar    1  UNL1        0.0222
      9 C         -12.4011  -19.0586   24.5941 C.ar    1  UNL1        0.0989
     10 N         -13.4481  -18.1197   24.0723 N.ar    1  UNL1       -0.2423
     11 C         -13.1692  -17.2862   22.8567 C.ar    1  UNL1        0.0989
     12 C         -11.8435  -17.3918   22.1630 C.ar    1  UNL1        0.0222
     13 C          -8.3964  -16.9299   23.8151 C.ar    1  UNL1        0.1645
     14 C          -8.3095  -15.4360   23.9180 C.ar    1  UNL1        0.0423
     15 C          -8.4905  -15.0593   25.3586 C.ar    1  UNL1        0.0438
     16 C          -8.6892  -16.3204   26.1461 C.ar    1  UNL1        0.1797
     17 O          -8.6310  -17.4765   25.1921 O.2     1  UNL1       -0.4488
     18 O          -4.2868  -18.1032   22.1170 O.2     1  UNL1       -0.2747
     19 C          -4.2274  -18.4807   20.6665 C.2     1  UNL1        0.2267
     20 N          -5.4936  -18.7526   19.9098 N.am    1  UNL1       -0.2681
     21 H          -5.4545  -19.0003   18.9577 H       1  UNL1        0.1563
     22 C          -2.9016  -18.5861   19.9727 C.3     1  UNL1        0.0769
     23 C          -2.0784  -18.4901   18.7225 C.3     1  UNL1        0.0096
     24 C          -1.4285  -18.8648   20.0214 C.3     1  UNL1        0.0096
@<TRIPOS>BOND
     1    18    19    2
     2    19    20   am
     3    20     1    1
     4     1     2   ar
     5     2     3   ar
     6     3     4   ar
     7     4     7    1
     8     7     8   ar
     9     8     9   ar
    10     9    10   ar
    11    10    11   ar
    12    11    12   ar
    13     4     5   ar
    14     5    13    1
    15    13    14   ar
    16    14    15   ar
    17    15    16   ar
    18    16    17   ar
    19     5     6   ar
    20    19    22    1
    21    22    23    1
    22    23    24    1
    23     6     1   ar
    24    24    22    1
    25    12     7   ar
    26    17    13   ar
    27    20    21    1
@<TRIPOS>MOLECULE
*****
 24 27 0 0 0
SMALL
GASTEIGER

@<TRIPOS>ATOM
      1 C          -4.4066  -18.0820   21.9426 C.ar    1  UNL1        0.1536
      2 C          -4.8983  -17.3300   23.1437 C.ar    1  UNL1        0.1332
      3 N          -6.3712  -17.1981   23.3946 N.ar    1  UNL1       -0.2393
      4 C          -7.3524  -17.8181   22.4444 C.ar    1  UNL1        0.1021
      5 C          -6.8607  -18.5701   21.2433 C.ar    1  UNL1        0.1346
      6 N          -5.3877  -18.7020   20.9924 N.ar    1  UNL1       -0.2243
      7 C          -8.8254  -17.6861   22.6954 C.ar    1  UNL1        0.0223
      8 C          -9.5559  -16.4562   22.2439 C.ar    1  UNL1        0.0222
      9 C         -11.0289  -16.3242   22.4949 C.ar    1  UNL1        0.0989
     10 N         -11.7714  -17.4221   23.1973 N.ar    1  UNL1       -0.2423
     11 C         -11.0408  -18.6520   23.6487 C.ar    1  UNL1        0.0989
     12 C          -9.5679  -18.7840   23.3978 C.ar    1  UNL1        0.0222
     13 C          -7.8419  -19.1901   20.2932 C.ar    1  UNL1        0.1645
     14 C          -7.6323  -20.4504   19.5073 C.ar    1  UNL1        0.0423
     15 C          -8.8658  -20.6979   18.6904 C.ar    1  UNL1        0.0438
     16 C          -9.8377  -19.5905   18.9714 C.ar    1  UNL1        0.1797
     17 O          -9.2049  -18.6586   19.9620 O.2     1  UNL1       -0.4488
     18 O          -3.2316  -17.1073   19.3601 O.2     1  UNL1       -0.2747
     19 C          -2.3461  -17.7267   20.4004 C.2     1  UNL1        0.2267
     20 N          -2.9335  -18.2140   21.6917 N.am    1  UNL1       -0.2681
     21 H          -2.3524  -18.6205   22.3745 H       1  UNL1        0.1563
     22 C          -0.8731  -17.8587   20.1495 C.3     1  UNL1        0.0769
     23 C           0.3169  -18.7091   19.8169 C.3     1  UNL1        0.0096
     24 C           0.4882  -17.2369   20.0474 C.3     1  UNL1        0.0096
@<TRIPOS>BOND
     1    18    19    2
     2    19    20   am
     3    20     1    1
     4     1     2   ar
     5     2     3   ar
     6     3     4   ar
     7     4     7    1
     8     7     8   ar
     9     8     9   ar
    10     9    10   ar
    11    10    11   ar
    12    11    12   ar
    13     4     5   ar
    14     5    13    1
    15    13    14   ar
    16    14    15   ar
    17    15    16   ar
    18    16    17   ar
    19     5     6   ar
    20    19    22    1
    21    22    23    1
    22    23    24    1
    23     6     1   ar
    24    24    22    1
    25    12     7   ar
    26    17    13   ar
    27    20    21    1
@<TRIPOS>MOLECULE
*****
 24 27 0 0 0
SMALL
GASTEIGER

@<TRIPOS>ATOM
      1 C          -9.0790  -17.0784   23.6174 C.ar    1  UNL1        0.1536
      2 C          -8.1876  -16.1298   24.3627 C.ar    1  UNL1        0.1332
      3 N          -6.7063  -16.1510   24.1272 N.ar    1  UNL1       -0.2393
      4 C          -6.1166  -17.1207   23.1465 C.ar    1  UNL1        0.1021
      5 C          -7.0080  -18.0693   22.4012 C.ar    1  UNL1        0.1346
      6 N          -8.4893  -18.0481   22.6366 N.ar    1  UNL1       -0.2243
      7 C          -4.6353  -17.1418   22.9110 C.ar    1  UNL1        0.0223
      8 C          -3.8505  -18.3911   23.1819 C.ar    1  UNL1        0.0222
      9 C          -2.3692  -18.4123   22.9465 C.ar    1  UNL1        0.0989
     10 N          -1.6727  -17.1841   22.4402 N.ar    1  UNL1       -0.2423
     11 C          -2.4575  -15.9347   22.1693 C.ar    1  UNL1        0.0989
     12 C          -3.9388  -15.9136   22.4047 C.ar    1  UNL1        0.0222
     13 C          -6.4183  -19.0390   21.4205 C.ar    1  UNL1        0.1645
     14 C          -6.4472  -20.5345   21.5332 C.ar    1  UNL1        0.0423
     15 C          -5.7429  -21.1032   20.3372 C.ar    1  UNL1        0.0438
     16 C          -5.2786  -19.9593   19.4853 C.ar    1  UNL1        0.1797
     17 O          -5.6960  -18.6835   20.1548 O.2     1  UNL1       -0.4488
     18 O         -10.5240  -19.6144   24.3109 O.2     1  UNL1       -0.2747
     19 C         -11.2828  -18.3252   24.1995 C.2     1  UNL1        0.2267
     20 N         -10.5603  -17.0573   23.8528 N.am    1  UNL1       -0.2681
     21 H         -11.0583  -16.2112   23.7798 H       1  UNL1        0.1563
     22 C         -12.7641  -18.3041   24.4350 C.3     1  UNL1        0.0769
     23 C         -14.1556  -18.0541   23.9339 C.3     1  UNL1        0.0096
     24 C         -13.9382  -18.5175   25.3438 C.3     1  UNL1        0.0096
@<TRIPOS>BOND
     1    18    19    2
     2    19    20   am
     3    20     1    1
     4     1     2   ar
     5     2     3   ar
     6     3     4   ar
     7     4     7    1
     8     7     8   ar
     9     8     9   ar
    10     9    10   ar
    11    10    11   ar
    12    11    12   ar
    13     4     5   ar
    14     5    13    1
    15    13    14   ar
    16    14    15   ar
    17    15    16   ar
    18    16    17   ar
    19     5     6   ar
    20    19    22    1
    21    22    23    1
    22    23    24    1
    23     6     1   ar
    24    24    22    1
    25    12     7   ar
    26    17    13   ar
    27    20    21    1
@<TRIPOS>MOLECULE
*****
 24 27 0 0 0
SMALL
GASTEIGER

@<TRIPOS>ATOM
      1 C           6.9089   -5.2770   29.1532 C.ar    1  UNL1        0.1536
      2 C           7.0611   -5.7237   30.5770 C.ar    1  UNL1        0.1332
      3 N           6.7921   -4.7631   31.6972 N.ar    1  UNL1       -0.2393
      4 C           6.3709   -3.3559   31.3936 C.ar    1  UNL1        0.1021
      5 C           6.2186   -2.9092   29.9698 C.ar    1  UNL1        0.1346
      6 N           6.4876   -3.8698   28.8496 N.ar    1  UNL1       -0.2243
      7 C           6.1019   -2.3953   32.5139 C.ar    1  UNL1        0.0223
      8 C           7.1755   -1.4502   32.9656 C.ar    1  UNL1        0.0222
      9 C           6.9065   -0.4896   34.0858 C.ar    1  UNL1        0.0989
     10 N           5.5638   -0.4741   34.7544 N.ar    1  UNL1       -0.2423
     11 C           4.4901   -1.4192   34.3026 C.ar    1  UNL1        0.0989
     12 C           4.7592   -2.3798   33.1824 C.ar    1  UNL1        0.0222
     13 C           5.7974   -1.5019   29.6662 C.ar    1  UNL1        0.1645
     14 C           6.7106   -0.3633   29.3205 C.ar    1  UNL1        0.0423
     15 C           5.8666    0.8561   29.0956 C.ar    1  UNL1        0.0438
     16 C           4.4316    0.4711   29.3023 C.ar    1  UNL1        0.1797
     17 O           4.3889   -0.9862   29.6549 O.2     1  UNL1       -0.4488
     18 O           9.1188   -4.7241   27.2011 O.2     1  UNL1       -0.2747
     19 C           8.2828   -5.9611   27.0569 C.2     1  UNL1        0.2267
     20 N           7.1779   -6.2376   28.0329 N.am    1  UNL1       -0.2681
     21 H           6.6292   -7.0496   27.9383 H       1  UNL1        0.1563
     22 C           8.5518   -6.9217   25.9366 C.3     1  UNL1        0.0769
     23 C           9.3935   -8.0031   25.3266 C.3     1  UNL1        0.0096
     24 C           8.1760   -7.5042   24.6064 C.3     1  UNL1        0.0096
@<TRIPOS>BOND
     1    18    19    2
     2    19    20   am
     3    20     1    1
     4     1     2   ar
     5     2     3   ar
     6     3     4   ar
     7     4     7    1
     8     7     8   ar
     9     8     9   ar
    10     9    10   ar
    11    10    11   ar
    12    11    12   ar
    13     4     5   ar
    14     5    13    1
    15    13    14   ar
    16    14    15   ar
    17    15    16   ar
    18    16    17   ar
    19     5     6   ar
    20    19    22    1
    21    22    23    1
    22    23    24    1
    23     6     1   ar
    24    24    22    1
    25    12     7   ar
    26    17    13   ar
    27    20    21    1
@<TRIPOS>MOLECULE
*****
 24 27 0 0 0
SMALL
GASTEIGER

@<TRIPOS>ATOM
      1 C           4.1172   -1.6586   24.6164 C.ar    1  UNL1        0.1536
      2 C           5.4340   -2.2900   24.2740 C.ar    1  UNL1        0.1332
      3 N           5.9301   -2.2693   22.8585 N.ar    1  UNL1       -0.2393
      4 C           5.1093   -1.6172   21.7856 C.ar    1  UNL1        0.1021
      5 C           3.7925   -0.9859   22.1281 C.ar    1  UNL1        0.1346
      6 N           3.2964   -1.0066   23.5435 N.ar    1  UNL1       -0.2243
      7 C           5.6055   -1.5965   20.3701 C.ar    1  UNL1        0.0223
      8 C           5.2505   -2.7139   19.4346 C.ar    1  UNL1        0.0222
      9 C           5.7467   -2.6933   18.0191 C.ar    1  UNL1        0.0989
     10 N           6.5978   -1.5551   17.5393 N.ar    1  UNL1       -0.2423
     11 C           6.9527   -0.4376   18.4749 C.ar    1  UNL1        0.0989
     12 C           6.4566   -0.4584   19.8903 C.ar    1  UNL1        0.0222
     13 C           2.9718   -0.3338   21.0551 C.ar    1  UNL1        0.1645
     14 C           1.7824   -0.9352   20.3669 C.ar    1  UNL1        0.0423
     15 C           1.2718    0.0610   19.3684 C.ar    1  UNL1        0.0438
     16 C           2.1457    1.2781   19.4396 C.ar    1  UNL1        0.1797
     17 O           3.1963    1.0341   20.4821 O.2     1  UNL1       -0.4488
     18 O           3.9434    0.8942   26.1825 O.2     1  UNL1       -0.2747
     19 C           3.5342   -0.4029   26.8149 C.2     1  UNL1        0.2267
     20 N           3.6211   -1.6793   26.0319 N.am    1  UNL1       -0.2681
     21 H           3.3524   -2.5307   26.4470 H       1  UNL1        0.1563
     22 C           3.0380   -0.4236   28.2304 C.3     1  UNL1        0.0769
     23 C           1.9044   -0.3600   29.2106 C.3     1  UNL1        0.0096
     24 C           3.3123   -0.5230   29.7018 C.3     1  UNL1        0.0096
@<TRIPOS>BOND
     1    18    19    2
     2    19    20   am
     3    20     1    1
     4     1     2   ar
     5     2     3   ar
     6     3     4   ar
     7     4     7    1
     8     7     8   ar
     9     8     9   ar
    10     9    10   ar
    11    10    11   ar
    12    11    12   ar
    13     4     5   ar
    14     5    13    1
    15    13    14   ar
    16    14    15   ar
    17    15    16   ar
    18    16    17   ar
    19     5     6   ar
    20    19    22    1
    21    22    23    1
    22    23    24    1
    23     6     1   ar
    24    24    22    1
    25    12     7   ar
    26    17    13   ar
    27    20    21    1
@<TRIPOS>MOLECULE
*****
 24 27 0 0 0
SMALL
GASTEIGER

@<TRIPOS>ATOM
      1 C           0.9104    1.6548   18.9414 C.ar    1  UNL1        0.1536
      2 C           0.2581    0.6362   19.8285 C.ar    1  UNL1        0.1332
      3 N           1.0394   -0.5511   20.3078 N.ar    1  UNL1       -0.2393
      4 C           2.4730   -0.7199   19.9001 C.ar    1  UNL1        0.1021
      5 C           3.1253    0.2987   19.0131 C.ar    1  UNL1        0.1346
      6 N           2.3441    1.4860   18.5337 N.ar    1  UNL1       -0.2243
      7 C           3.2543   -1.9073   20.3795 C.ar    1  UNL1        0.0223
      8 C           3.4432   -3.0933   19.4808 C.ar    1  UNL1        0.0222
      9 C           4.2245   -4.2807   19.9602 C.ar    1  UNL1        0.0989
     10 N           4.8169   -4.2820   21.3383 N.ar    1  UNL1       -0.2423
     11 C           4.6279   -3.0959   22.2370 C.ar    1  UNL1        0.0989
     12 C           3.8467   -1.9086   21.7576 C.ar    1  UNL1        0.0222
     13 C           4.5590    0.1300   18.6053 C.ar    1  UNL1        0.1645
     14 C           5.0470   -0.2817   17.2480 C.ar    1  UNL1        0.0423
     15 C           6.5460   -0.3228   17.2871 C.ar    1  UNL1        0.0438
     16 C           6.9843    0.0634   18.6687 C.ar    1  UNL1        0.1797
     17 O           5.7563    0.3433   19.4833 O.2     1  UNL1       -0.4488
     18 O           0.6251    4.0708   20.6969 O.2     1  UNL1       -0.2747
     19 C          -0.0135    4.0501   19.3398 C.2     1  UNL1        0.2267
     20 N           0.1291    2.8422   18.4621 N.am    1  UNL1       -0.2681
     21 H          -0.2900    2.8286   17.5713 H       1  UNL1        0.1563
     22 C          -0.7948    5.2375   18.8604 C.3     1  UNL1        0.0769
     23 C          -2.0938    5.8479   18.4245 C.3     1  UNL1        0.0096
     24 C          -0.8490    6.6837   18.4660 C.3     1  UNL1        0.0096
@<TRIPOS>BOND
     1    18    19    2
     2    19    20   am
     3    20     1    1
     4     1     2   ar
     5     2     3   ar
     6     3     4   ar
     7     4     7    1
     8     7     8   ar
     9     8     9   ar
    10     9    10   ar
    11    10    11   ar
    12    11    12   ar
    13     4     5   ar
    14     5    13    1
    15    13    14   ar
    16    14    15   ar
    17    15    16   ar
    18    16    17   ar
    19     5     6   ar
    20    19    22    1
    21    22    23    1
    22    23    24    1
    23     6     1   ar
    24    24    22    1
    25    12     7   ar
    26    17    13   ar
    27    20    21    1
@<TRIPOS>MOLECULE
*****
 24 27 0 0 0
SMALL
GASTEIGER

@<TRIPOS>ATOM
      1 C          -0.8618    2.9248   20.4232 C.ar    1  UNL1        0.1536
      2 C          -0.8327    3.1822   21.9006 C.ar    1  UNL1        0.1332
      3 N          -2.0354    3.7613   22.5848 N.ar    1  UNL1       -0.2393
      4 C          -3.2671    4.0830   21.7916 C.ar    1  UNL1        0.1021
      5 C          -3.2963    3.8256   20.3142 C.ar    1  UNL1        0.1346
      6 N          -2.0936    3.2465   19.6300 N.ar    1  UNL1       -0.2243
      7 C          -4.4698    4.6622   22.4759 C.ar    1  UNL1        0.0223
      8 C          -4.6645    6.1488   22.5196 C.ar    1  UNL1        0.0222
      9 C          -5.8672    6.7280   23.2039 C.ar    1  UNL1        0.0989
     10 N          -6.8752    5.8204   23.8445 N.ar    1  UNL1       -0.2423
     11 C          -6.6805    4.3337   23.8007 C.ar    1  UNL1        0.0989
     12 C          -5.4778    3.7546   23.1164 C.ar    1  UNL1        0.0222
     13 C          -4.5281    4.1473   19.5210 C.ar    1  UNL1        0.1645
     14 C          -5.7610    3.2986   19.4240 C.ar    1  UNL1        0.0423
     15 C          -6.7382    4.0010   18.5286 C.ar    1  UNL1        0.0438
     16 C          -6.1091    5.2839   18.0720 C.ar    1  UNL1        0.1797
     17 O          -4.7432    5.3743   18.6854 O.2     1  UNL1       -0.4488
     18 O          -0.2701   -0.0071   20.6562 O.2     1  UNL1       -0.2747
     19 C           0.6367    0.8797   19.8554 C.2     1  UNL1        0.2267
     20 N           0.3408    2.3456   19.7389 N.am    1  UNL1       -0.2681
     21 H           0.9360    2.9276   19.2133 H       1  UNL1        0.1563
     22 C           1.8394    0.3006   19.1711 C.3     1  UNL1        0.0769
     23 C           2.8051    0.2976   18.0234 C.3     1  UNL1        0.0096
     24 C           2.9567   -0.6995   19.1337 C.3     1  UNL1        0.0096
@<TRIPOS>BOND
     1    18    19    2
     2    19    20   am
     3    20     1    1
     4     1     2   ar
     5     2     3   ar
     6     3     4   ar
     7     4     7    1
     8     7     8   ar
     9     8     9   ar
    10     9    10   ar
    11    10    11   ar
    12    11    12   ar
    13     4     5   ar
    14     5    13    1
    15    13    14   ar
    16    14    15   ar
    17    15    16   ar
    18    16    17   ar
    19     5     6   ar
    20    19    22    1
    21    22    23    1
    22    23    24    1
    23     6     1   ar
    24    24    22    1
    25    12     7   ar
    26    17    13   ar
    27    20    21    1
@<TRIPOS>MOLECULE
*****
 24 27 0 0 0
SMALL
GASTEIGER

@<TRIPOS>ATOM
      1 C           4.7708   -2.1858   24.5829 C.ar    1  UNL1        0.1536
      2 C           3.9662   -0.9261   24.7085 C.ar    1  UNL1        0.1332
      3 N           3.3718   -0.2909   23.4865 N.ar    1  UNL1       -0.2393
      4 C           3.5819   -0.9155   22.1390 C.ar    1  UNL1        0.1021
      5 C           4.3864   -2.1752   22.0134 C.ar    1  UNL1        0.1346
      6 N           4.9808   -2.8104   23.2354 N.ar    1  UNL1       -0.2243
      7 C           2.9874   -0.2803   20.9170 C.ar    1  UNL1        0.0223
      8 C           3.8085    0.6604   20.0859 C.ar    1  UNL1        0.0222
      9 C           3.2140    1.2956   18.8639 C.ar    1  UNL1        0.0989
     10 N           1.7984    0.9901   18.4732 N.ar    1  UNL1       -0.2423
     11 C           0.9773    0.0494   19.3044 C.ar    1  UNL1        0.0989
     12 C           1.5718   -0.5857   20.5263 C.ar    1  UNL1        0.0222
     13 C           4.5965   -2.7998   20.6659 C.ar    1  UNL1        0.1645
     14 C           3.9133   -4.0309   20.1485 C.ar    1  UNL1        0.0423
     15 C           4.4212   -4.2949   18.7620 C.ar    1  UNL1        0.0438
     16 C           5.4183   -3.2269   18.4225 C.ar    1  UNL1        0.1797
     17 O           5.5266   -2.3029   19.5992 O.2     1  UNL1       -0.4488
     18 O           7.7094   -1.9277   25.1289 O.2     1  UNL1       -0.2747
     19 C           6.8345   -2.6920   26.0778 C.2     1  UNL1        0.2267
     20 N           5.3652   -2.8210   25.8049 N.am    1  UNL1       -0.2681
     21 H           4.7911   -3.3227   26.4277 H       1  UNL1        0.1563
     22 C           7.4290   -3.3272   27.2998 C.3     1  UNL1        0.0769
     23 C           8.5117   -3.3879   28.3362 C.3     1  UNL1        0.0096
     24 C           7.3760   -4.3667   28.3799 C.3     1  UNL1        0.0096
@<TRIPOS>BOND
     1    18    19    2
     2    19    20   am
     3    20     1    1
     4     1     2   ar
     5     2     3   ar
     6     3     4   ar
     7     4     7    1
     8     7     8   ar
     9     8     9   ar
    10     9    10   ar
    11    10    11   ar
    12    11    12   ar
    13     4     5   ar
    14     5    13    1
    15    13    14   ar
    16    14    15   ar
    17    15    16   ar
    18    16    17   ar
    19     5     6   ar
    20    19    22    1
    21    22    23    1
    22    23    24    1
    23     6     1   ar
    24    24    22    1
    25    12     7   ar
    26    17    13   ar
    27    20    21    1
