@<TRIPOS>MOLECULE
*****
 25 28 0 0 0
SMALL
GASTEIGER

@<TRIPOS>ATOM
      1 O          -8.0013  -15.4902   21.7480 O.2     1  UNL1       -0.2699
      2 C          -8.3855  -16.8661   22.2054 C.2     1  UNL1        0.2487
      3 N          -8.8923  -17.0782   23.6012 N.am    1  UNL1       -0.2763
      4 C          -8.2631  -18.0299   21.2670 C.ar    1  UNL1        0.0496
      5 C          -6.9344  -18.6973   21.0692 C.ar    1  UNL1        0.0042
      6 C          -6.8119  -19.8610   20.1309 C.ar    1  UNL1        0.0001
      7 C          -8.0182  -20.3574   19.3902 C.ar    1  UNL1       -0.0003
      8 C          -9.3469  -19.6901   19.5880 C.ar    1  UNL1       -0.0041
      9 C          -9.4693  -18.5263   20.5264 C.ar    1  UNL1       -0.0181
     10 C         -10.7981  -17.8589   20.7242 C.3     1  UNL1        0.0225
     11 C         -11.9040  -18.3429   21.6144 C.3     1  UNL1        0.0044
     12 C         -13.0436  -17.3734   21.5069 C.3     1  UNL1        0.0003
     13 C         -12.6418  -16.2901   20.5502 C.3     1  UNL1        0.0003
     14 C         -11.2541  -16.5902   20.0665 C.3     1  UNL1        0.0044
     15 C          -9.2765  -18.4542   24.0586 C.3     1  UNL1        0.0927
     16 C          -8.8155  -19.7460   23.4513 C.3     1  UNL1        0.0383
     17 C          -9.4433  -20.8701   24.2209 C.3     1  UNL1        0.0704
     18 N         -10.2922  -20.2730   25.3039 N.3     1  UNL1       -0.2960
     19 C         -10.1891  -18.7799   25.2036 C.3     1  UNL1        0.0887
     20 H          -9.9576  -20.5825   26.2164 H       1  UNL1        0.1233
     21 C          -9.0147  -15.9145   24.5396 C.3     1  UNL1        0.0936
     22 C          -8.0399  -15.7555   25.6685 C.3     1  UNL1        0.0199
     23 C          -8.1324  -15.8056   27.1649 C.3     1  UNL1        0.0017
     24 C          -6.6613  -15.5306   27.2650 C.3     1  UNL1        0.0001
     25 C          -6.5688  -15.4804   25.7688 C.3     1  UNL1        0.0017
@<TRIPOS>BOND
     1     1     2    2
     2     2     4    1
     3     4     5   ar
     4     5     6   ar
     5     6     7   ar
     6     7     8   ar
     7     8     9   ar
     8     9    10    1
     9    10    11    1
    10    11    12    1
    11    12    13    1
    12    13    14    1
    13     2     3   am
    14     3    21    1
    15    21    22    1
    16    22    23    1
    17    23    24    1
    18    24    25    1
    19    15     3    1
    20    15    16    1
    21    16    17    1
    22    17    18    1
    23    18    19    1
    24     9     4   ar
    25    14    10    1
    26    25    22    1
    27    19    15    1
    28    18    20    1
@<TRIPOS>MOLECULE
*****
 25 28 0 0 0
SMALL
GASTEIGER

@<TRIPOS>ATOM
      1 O          -7.8737  -15.3789   21.6527 O.2     1  UNL1       -0.2699
      2 C          -8.7532  -16.4911   22.1420 C.2     1  UNL1        0.2487
      3 N          -9.2316  -16.4990   23.5636 N.am    1  UNL1       -0.2763
      4 C          -9.1544  -17.5955   21.2095 C.ar    1  UNL1        0.0496
      5 C         -10.5418  -17.6298   20.6405 C.ar    1  UNL1        0.0042
      6 C         -10.9429  -18.7342   19.7081 C.ar    1  UNL1        0.0001
      7 C          -9.9566  -19.8043   19.3448 C.ar    1  UNL1       -0.0003
      8 C          -8.5691  -19.7701   19.9138 C.ar    1  UNL1       -0.0041
      9 C          -8.1681  -18.6657   20.8462 C.ar    1  UNL1       -0.0181
     10 C          -6.7806  -18.6313   21.4153 C.3     1  UNL1        0.0225
     11 C          -5.5298  -19.0753   20.7165 C.3     1  UNL1        0.0044
     12 C          -4.3765  -18.8653   21.6524 C.3     1  UNL1        0.0003
     13 C          -4.9146  -18.2916   22.9297 C.3     1  UNL1        0.0003
     14 C          -6.4004  -18.1470   22.7831 C.3     1  UNL1        0.0044
     15 C         -10.1111  -17.6113   24.0528 C.3     1  UNL1        0.0927
     16 C         -11.5977  -17.7032   23.8747 C.3     1  UNL1        0.0383
     17 C         -12.0638  -18.9757   24.5179 C.3     1  UNL1        0.0704
     18 N         -10.8652  -19.6702   25.0935 N.3     1  UNL1       -0.2960
     19 C          -9.6585  -18.8269   24.8060 C.3     1  UNL1        0.0887
     20 H         -10.7568  -20.5881   24.6622 H       1  UNL1        0.1233
     21 C          -8.8305  -15.3946   24.4960 C.3     1  UNL1        0.0936
     22 C          -7.9983  -15.6999   25.7061 C.3     1  UNL1        0.0199
     23 C          -6.5474  -15.5571   26.0591 C.3     1  UNL1        0.0017
     24 C          -6.8214  -16.1315   27.4174 C.3     1  UNL1        0.0001
     25 C          -8.2722  -16.2742   27.0644 C.3     1  UNL1        0.0017
@<TRIPOS>BOND
     1     1     2    2
     2     2     4    1
     3     4     5   ar
     4     5     6   ar
     5     6     7   ar
     6     7     8   ar
     7     8     9   ar
     8     9    10    1
     9    10    11    1
    10    11    12    1
    11    12    13    1
    12    13    14    1
    13     2     3   am
    14     3    21    1
    15    21    22    1
    16    22    23    1
    17    23    24    1
    18    24    25    1
    19    15     3    1
    20    15    16    1
    21    16    17    1
    22    17    18    1
    23    18    19    1
    24     9     4   ar
    25    14    10    1
    26    25    22    1
    27    19    15    1
    28    18    20    1
@<TRIPOS>MOLECULE
*****
 25 28 0 0 0
SMALL
GASTEIGER

@<TRIPOS>ATOM
      1 O          -7.0597  -18.2377   20.2053 O.2     1  UNL1       -0.2699
      2 C          -8.2145  -18.4983   21.1264 C.2     1  UNL1        0.2487
      3 N          -8.0853  -19.5145   22.2222 N.am    1  UNL1       -0.2763
      4 C          -9.4985  -17.7427   20.9518 C.ar    1  UNL1        0.0496
      5 C         -10.4674  -18.1476   19.8808 C.ar    1  UNL1        0.0042
      6 C         -11.7513  -17.3920   19.7062 C.ar    1  UNL1        0.0001
      7 C         -12.0664  -16.2314   20.6028 C.ar    1  UNL1       -0.0003
      8 C         -11.0975  -15.8265   21.6739 C.ar    1  UNL1       -0.0041
      9 C          -9.8136  -16.5821   21.8484 C.ar    1  UNL1       -0.0181
     10 C          -8.8446  -16.1771   22.9195 C.3     1  UNL1        0.0225
     11 C          -9.0724  -16.2784   24.3986 C.3     1  UNL1        0.0044
     12 C          -7.8463  -15.7637   25.0927 C.3     1  UNL1        0.0003
     13 C          -6.8607  -15.3443   24.0426 C.3     1  UNL1        0.0003
     14 C          -7.4777  -15.5999   22.6994 C.3     1  UNL1        0.0044
     15 C          -9.2402  -19.7751   23.1433 C.3     1  UNL1        0.0927
     16 C         -10.6286  -20.1631   22.7288 C.3     1  UNL1        0.0383
     17 C         -11.4558  -20.3212   23.9700 C.3     1  UNL1        0.0704
     18 N         -10.5787  -20.0308   25.1517 N.3     1  UNL1       -0.2960
     19 C          -9.2094  -19.6933   24.6408 C.3     1  UNL1        0.0887
     20 H         -10.5301  -20.8508   25.7565 H       1  UNL1        0.1233
     21 C          -6.8014  -20.2701   22.3968 C.3     1  UNL1        0.0936
     22 C          -5.4879  -19.5590   22.2591 C.3     1  UNL1        0.0199
     23 C          -4.8802  -18.3274   22.8625 C.3     1  UNL1        0.0017
     24 C          -3.6304  -18.5532   22.0644 C.3     1  UNL1        0.0001
     25 C          -4.2381  -19.7847   21.4611 C.3     1  UNL1        0.0017
@<TRIPOS>BOND
     1     1     2    2
     2     2     4    1
     3     4     5   ar
     4     5     6   ar
     5     6     7   ar
     6     7     8   ar
     7     8     9   ar
     8     9    10    1
     9    10    11    1
    10    11    12    1
    11    12    13    1
    12    13    14    1
    13     2     3   am
    14     3    21    1
    15    21    22    1
    16    22    23    1
    17    23    24    1
    18    24    25    1
    19    15     3    1
    20    15    16    1
    21    16    17    1
    22    17    18    1
    23    18    19    1
    24     9     4   ar
    25    14    10    1
    26    25    22    1
    27    19    15    1
    28    18    20    1
@<TRIPOS>MOLECULE
*****
 25 28 0 0 0
SMALL
GASTEIGER

@<TRIPOS>ATOM
      1 O          -8.0062  -15.4283   21.1943 O.2     1  UNL1       -0.2699
      2 C          -8.5869  -16.0609   22.4241 C.2     1  UNL1        0.2487
      3 N          -7.8281  -16.0216   23.7175 N.am    1  UNL1       -0.2763
      4 C          -9.9265  -16.7329   22.3607 C.ar    1  UNL1        0.0496
      5 C         -11.1613  -15.9839   22.7660 C.ar    1  UNL1        0.0042
      6 C         -12.5008  -16.6559   22.7025 C.ar    1  UNL1        0.0001
      7 C         -12.6055  -18.0770   22.2338 C.ar    1  UNL1       -0.0003
      8 C         -11.3708  -18.8260   21.8285 C.ar    1  UNL1       -0.0041
      9 C         -10.0313  -18.1539   21.8919 C.ar    1  UNL1       -0.0181
     10 C          -8.7964  -18.9029   21.4866 C.3     1  UNL1        0.0225
     11 C          -7.8429  -19.5979   22.4128 C.3     1  UNL1        0.0044
     12 C          -6.7555  -20.2129   21.5825 C.3     1  UNL1        0.0003
     13 C          -7.0370  -19.8981   20.1431 C.3     1  UNL1        0.0003
     14 C          -8.2983  -19.0885   20.0839 C.3     1  UNL1        0.0044
     15 C          -8.4089  -16.6542   24.9473 C.3     1  UNL1        0.0927
     16 C          -8.2569  -16.1524   26.3527 C.3     1  UNL1        0.0383
     17 C          -8.9977  -17.0878   27.2616 C.3     1  UNL1        0.0704
     18 N          -9.6076  -18.1678   26.4180 N.3     1  UNL1       -0.2960
     19 C          -9.2437  -17.8998   24.9877 C.3     1  UNL1        0.0887
     20 H         -10.6220  -18.1590   26.5246 H       1  UNL1        0.1233
     21 C          -6.4886  -15.3496   23.7810 C.3     1  UNL1        0.0936
     22 C          -5.2448  -16.1244   23.4604 C.3     1  UNL1        0.0199
     23 C          -3.8406  -15.7643   23.0751 C.3     1  UNL1        0.0017
     24 C          -3.4860  -17.2202   23.0071 C.3     1  UNL1        0.0001
     25 C          -4.8901  -17.5803   23.3924 C.3     1  UNL1        0.0017
@<TRIPOS>BOND
     1     1     2    2
     2     2     4    1
     3     4     5   ar
     4     5     6   ar
     5     6     7   ar
     6     7     8   ar
     7     8     9   ar
     8     9    10    1
     9    10    11    1
    10    11    12    1
    11    12    13    1
    12    13    14    1
    13     2     3   am
    14     3    21    1
    15    21    22    1
    16    22    23    1
    17    23    24    1
    18    24    25    1
    19    15     3    1
    20    15    16    1
    21    16    17    1
    22    17    18    1
    23    18    19    1
    24     9     4   ar
    25    14    10    1
    26    25    22    1
    27    19    15    1
    28    18    20    1
@<TRIPOS>MOLECULE
*****
 25 28 0 0 0
SMALL
GASTEIGER

@<TRIPOS>ATOM
      1 O          -9.0778  -20.1754   20.0680 O.2     1  UNL1       -0.2699
      2 C          -8.6158  -19.3328   21.2198 C.2     1  UNL1        0.2487
      3 N          -7.3118  -18.5963   21.1347 N.am    1  UNL1       -0.2763
      4 C          -9.4579  -19.2266   22.4566 C.ar    1  UNL1        0.0496
      5 C          -9.1722  -20.1079   23.6363 C.ar    1  UNL1        0.0042
      6 C         -10.0143  -20.0018   24.8731 C.ar    1  UNL1        0.0001
      7 C         -11.1419  -19.0143   24.9302 C.ar    1  UNL1       -0.0003
      8 C         -11.4275  -18.1329   23.7505 C.ar    1  UNL1       -0.0041
      9 C         -10.5855  -18.2391   22.5137 C.ar    1  UNL1       -0.0181
     10 C         -10.8711  -17.3578   21.3340 C.3     1  UNL1        0.0225
     11 C         -11.5733  -17.7706   20.0745 C.3     1  UNL1        0.0044
     12 C         -11.6408  -16.5769   19.1687 C.3     1  UNL1        0.0003
     13 C         -10.9803  -15.4261   19.8685 C.3     1  UNL1        0.0003
     14 C         -10.5046  -15.9088   21.2067 C.3     1  UNL1        0.0044
     15 C          -6.8499  -17.7537   22.2866 C.3     1  UNL1        0.0927
     16 C          -7.6125  -16.6253   22.9152 C.3     1  UNL1        0.0383
     17 C          -6.7782  -16.0658   24.0291 C.3     1  UNL1        0.0704
     18 N          -5.4999  -16.8484   24.0890 N.3     1  UNL1       -0.2960
     19 C          -5.5442  -17.8915   23.0120 C.3     1  UNL1        0.0887
     20 H          -5.4105  -17.2961   25.0011 H       1  UNL1        0.1233
     21 C          -6.4698  -18.7024   19.8980 C.3     1  UNL1        0.0936
     22 C          -5.1304  -19.3750   19.9580 C.3     1  UNL1        0.0199
     23 C          -3.7129  -18.9376   19.7350 C.3     1  UNL1        0.0017
     24 C          -3.2362  -20.3261   20.0428 C.3     1  UNL1        0.0001
     25 C          -4.6535  -20.7634   20.2657 C.3     1  UNL1        0.0017
@<TRIPOS>BOND
     1     1     2    2
     2     2     4    1
     3     4     5   ar
     4     5     6   ar
     5     6     7   ar
     6     7     8   ar
     7     8     9   ar
     8     9    10    1
     9    10    11    1
    10    11    12    1
    11    12    13    1
    12    13    14    1
    13     2     3   am
    14     3    21    1
    15    21    22    1
    16    22    23    1
    17    23    24    1
    18    24    25    1
    19    15     3    1
    20    15    16    1
    21    16    17    1
    22    17    18    1
    23    18    19    1
    24     9     4   ar
    25    14    10    1
    26    25    22    1
    27    19    15    1
    28    18    20    1
@<TRIPOS>MOLECULE
*****
 25 28 0 0 0
SMALL
GASTEIGER

@<TRIPOS>ATOM
      1 O           4.1264   -0.9734   16.4028 O.2     1  UNL1       -0.2699
      2 C           5.0553   -0.3561   17.4058 C.2     1  UNL1        0.2487
      3 N           5.9841   -1.2244   18.2016 N.am    1  UNL1       -0.2763
      4 C           5.0555    1.1295   17.6129 C.ar    1  UNL1        0.0496
      5 C           6.0516    1.9874   16.8904 C.ar    1  UNL1        0.0042
      6 C           6.0517    3.4730   17.0976 C.ar    1  UNL1        0.0001
      7 C           5.0558    4.1007   18.0271 C.ar    1  UNL1       -0.0003
      8 C           4.0598    3.2429   18.7495 C.ar    1  UNL1       -0.0041
      9 C           4.0596    1.7573   18.5424 C.ar    1  UNL1       -0.0181
     10 C           3.0635    0.8994   19.2649 C.3     1  UNL1        0.0225
     11 C           1.7378    0.4461   18.7293 C.3     1  UNL1        0.0044
     12 C           1.0732   -0.3892   19.7832 C.3     1  UNL1        0.0003
     13 C           1.9883   -0.4522   20.9701 C.3     1  UNL1        0.0003
     14 C           3.2183    0.3442   20.6497 C.3     1  UNL1        0.0044
     15 C           6.9131   -0.6070   19.2046 C.3     1  UNL1        0.0927
     16 C           6.6201   -0.3869   20.6591 C.3     1  UNL1        0.0383
     17 C           7.8240    0.2548   21.2826 C.3     1  UNL1        0.0704
     18 N           8.8612    0.4312   20.2133 N.3     1  UNL1       -0.2960
     19 C           8.2982   -0.1014   18.9291 C.3     1  UNL1        0.0887
     20 H           9.7054   -0.0846   20.4615 H       1  UNL1        0.1233
     21 C           5.9839   -2.7100   17.9946 C.3     1  UNL1        0.0936
     22 C           4.8964   -3.5509   18.5949 C.3     1  UNL1        0.0199
     23 C           4.6759   -5.0224   18.7847 C.3     1  UNL1        0.0017
     24 C           3.3584   -4.7399   19.4438 C.3     1  UNL1        0.0001
     25 C           3.5789   -3.2685   19.2539 C.3     1  UNL1        0.0017
@<TRIPOS>BOND
     1     1     2    2
     2     2     4    1
     3     4     5   ar
     4     5     6   ar
     5     6     7   ar
     6     7     8   ar
     7     8     9   ar
     8     9    10    1
     9    10    11    1
    10    11    12    1
    11    12    13    1
    12    13    14    1
    13     2     3   am
    14     3    21    1
    15    21    22    1
    16    22    23    1
    17    23    24    1
    18    24    25    1
    19    15     3    1
    20    15    16    1
    21    16    17    1
    22    17    18    1
    23    18    19    1
    24     9     4   ar
    25    14    10    1
    26    25    22    1
    27    19    15    1
    28    18    20    1
@<TRIPOS>MOLECULE
*****
 25 28 0 0 0
SMALL
GASTEIGER

@<TRIPOS>ATOM
      1 O          -9.2962  -19.9281   21.1455 O.2     1  UNL1       -0.2699
      2 C          -9.3590  -18.8000   22.1320 C.2     1  UNL1        0.2487
      3 N          -8.1707  -17.9051   22.3249 N.am    1  UNL1       -0.2763
      4 C         -10.6103  -18.5667   22.9258 C.ar    1  UNL1        0.0496
      5 C         -10.8491  -19.3341   24.1923 C.ar    1  UNL1        0.0042
      6 C         -12.1003  -19.1008   24.9860 C.ar    1  UNL1        0.0001
      7 C         -13.1127  -18.1000   24.5133 C.ar    1  UNL1       -0.0003
      8 C         -12.8739  -17.3325   23.2468 C.ar    1  UNL1       -0.0041
      9 C         -11.6227  -17.5659   22.4531 C.ar    1  UNL1       -0.0181
     10 C         -11.3838  -16.7984   21.1866 C.3     1  UNL1        0.0225
     11 C         -10.6266  -15.5092   21.0664 C.3     1  UNL1        0.0044
     12 C         -10.6351  -15.0994   19.6235 C.3     1  UNL1        0.0003
     13 C         -11.3975  -16.1355   18.8518 C.3     1  UNL1        0.0003
     14 C         -11.8603  -17.1855   19.8179 C.3     1  UNL1        0.0044
     15 C          -8.2337  -16.7770   23.3116 C.3     1  UNL1        0.0927
     16 C          -8.7643  -16.8592   24.7121 C.3     1  UNL1        0.0383
     17 C          -8.6356  -15.5016   25.3370 C.3     1  UNL1        0.0704
     18 N          -8.0254  -14.5804   24.3225 N.3     1  UNL1       -0.2960
     19 C          -7.7770  -15.3686   23.0708 C.3     1  UNL1        0.0887
     20 H          -7.1446  -14.2087   24.6780 H       1  UNL1        0.1233
     21 C          -6.9195  -18.1384   21.5312 C.3     1  UNL1        0.0936
     22 C          -5.6089  -18.3282   22.2356 C.3     1  UNL1        0.0199
     23 C          -4.5995  -19.4347   22.3181 C.3     1  UNL1        0.0017
     24 C          -3.7554  -18.5965   23.2318 C.3     1  UNL1        0.0001
     25 C          -4.7647  -17.4901   23.1493 C.3     1  UNL1        0.0017
@<TRIPOS>BOND
     1     1     2    2
     2     2     4    1
     3     4     5   ar
     4     5     6   ar
     5     6     7   ar
     6     7     8   ar
     7     8     9   ar
     8     9    10    1
     9    10    11    1
    10    11    12    1
    11    12    13    1
    12    13    14    1
    13     2     3   am
    14     3    21    1
    15    21    22    1
    16    22    23    1
    17    23    24    1
    18    24    25    1
    19    15     3    1
    20    15    16    1
    21    16    17    1
    22    17    18    1
    23    18    19    1
    24     9     4   ar
    25    14    10    1
    26    25    22    1
    27    19    15    1
    28    18    20    1
@<TRIPOS>MOLECULE
*****
 25 28 0 0 0
SMALL
GASTEIGER

@<TRIPOS>ATOM
      1 O          -7.1952  -20.8651   22.5658 O.2     1  UNL1       -0.2699
      2 C          -7.6256  -19.4426   22.7685 C.2     1  UNL1        0.2487
      3 N          -6.6012  -18.3476   22.8092 N.am    1  UNL1       -0.2763
      4 C          -9.0804  -19.1150   22.9306 C.ar    1  UNL1        0.0496
      5 C          -9.6259  -18.7738   24.2855 C.ar    1  UNL1        0.0042
      6 C         -11.0807  -18.4462   24.4476 C.ar    1  UNL1        0.0001
      7 C         -11.9899  -18.4598   23.2546 C.ar    1  UNL1       -0.0003
      8 C         -11.4444  -18.8009   21.8997 C.ar    1  UNL1       -0.0041
      9 C          -9.9896  -19.1285   21.7376 C.ar    1  UNL1       -0.0181
     10 C          -9.4440  -19.4697   20.3826 C.3     1  UNL1        0.0225
     11 C          -8.0766  -19.1263   19.8707 C.3     1  UNL1        0.0044
     12 C          -7.9575  -19.6585   18.4734 C.3     1  UNL1        0.0003
     13 C          -9.2515  -20.3309   18.1216 C.3     1  UNL1        0.0003
     14 C         -10.1702  -20.2142   19.3016 C.3     1  UNL1        0.0044
     15 C          -7.0316  -16.9250   23.0119 C.3     1  UNL1        0.0927
     16 C          -6.7123  -16.0681   24.2009 C.3     1  UNL1        0.0383
     17 C          -7.3403  -14.7232   23.9851 C.3     1  UNL1        0.0704
     18 N          -8.0478  -14.7488   22.6626 N.3     1  UNL1       -0.2960
     19 C          -7.8570  -16.1096   22.0612 C.3     1  UNL1        0.0887
     20 H          -7.6534  -14.0391   22.0452 H       1  UNL1        0.1233
     21 C          -5.1464  -18.6752   22.6471 C.3     1  UNL1        0.0936
     22 C          -4.6207  -19.1148   21.3128 C.3     1  UNL1        0.0199
     23 C          -4.7534  -20.3526   20.4759 C.3     1  UNL1        0.0017
     24 C          -3.8773  -19.7365   19.4258 C.3     1  UNL1        0.0001
     25 C          -3.7446  -18.4988   20.2626 C.3     1  UNL1        0.0017
@<TRIPOS>BOND
     1     1     2    2
     2     2     4    1
     3     4     5   ar
     4     5     6   ar
     5     6     7   ar
     6     7     8   ar
     7     8     9   ar
     8     9    10    1
     9    10    11    1
    10    11    12    1
    11    12    13    1
    12    13    14    1
    13     2     3   am
    14     3    21    1
    15    21    22    1
    16    22    23    1
    17    23    24    1
    18    24    25    1
    19    15     3    1
    20    15    16    1
    21    16    17    1
    22    17    18    1
    23    18    19    1
    24     9     4   ar
    25    14    10    1
    26    25    22    1
    27    19    15    1
    28    18    20    1
@<TRIPOS>MOLECULE
*****
 25 28 0 0 0
SMALL
GASTEIGER

@<TRIPOS>ATOM
      1 O           5.0085   -1.3065   17.0749 O.2     1  UNL1       -0.2699
      2 C           4.8039   -0.4242   18.2706 C.2     1  UNL1        0.2487
      3 N           5.9885    0.1291   19.0059 N.am    1  UNL1       -0.2763
      4 C           3.4147   -0.0951   18.7310 C.ar    1  UNL1        0.0496
      5 C           2.7416    1.1559   18.2496 C.ar    1  UNL1        0.0042
      6 C           1.3525    1.4849   18.7100 C.ar    1  UNL1        0.0001
      7 C           0.6364    0.5629   19.6518 C.ar    1  UNL1       -0.0003
      8 C           1.3095   -0.6882   20.1333 C.ar    1  UNL1       -0.0041
      9 C           2.6986   -1.0172   19.6729 C.ar    1  UNL1       -0.0181
     10 C           3.3718   -2.2683   20.1543 C.3     1  UNL1        0.0225
     11 C           3.4978   -3.5521   19.3889 C.3     1  UNL1        0.0044
     12 C           4.2410   -4.5324   20.2472 C.3     1  UNL1        0.0003
     13 C           4.5743   -3.8544   21.5431 C.3     1  UNL1        0.0003
     14 C           4.0371   -2.4551   21.4856 C.3     1  UNL1        0.0044
     15 C           5.7838    1.0115   20.2016 C.3     1  UNL1        0.0927
     16 C           5.7730    0.5667   21.6341 C.3     1  UNL1        0.0383
     17 C           5.5366    1.7738   22.4925 C.3     1  UNL1        0.0704
     18 N           5.4012    2.9647   21.5905 N.3     1  UNL1       -0.2960
     19 C           5.5540    2.4935   20.1747 C.3     1  UNL1        0.0887
     20 H           6.1266    3.6480   21.8082 H       1  UNL1        0.1233
     21 C           7.3776   -0.1999   18.5455 C.3     1  UNL1        0.0936
     22 C           8.0857   -1.4017   19.0972 C.3     1  UNL1        0.0199
     23 C           7.6521   -2.7255   19.6538 C.3     1  UNL1        0.0017
     24 C           9.0870   -3.1012   19.8774 C.3     1  UNL1        0.0001
     25 C           9.5204   -1.7776   19.3209 C.3     1  UNL1        0.0017
@<TRIPOS>BOND
     1     1     2    2
     2     2     4    1
     3     4     5   ar
     4     5     6   ar
     5     6     7   ar
     6     7     8   ar
     7     8     9   ar
     8     9    10    1
     9    10    11    1
    10    11    12    1
    11    12    13    1
    12    13    14    1
    13     2     3   am
    14     3    21    1
    15    21    22    1
    16    22    23    1
    17    23    24    1
    18    24    25    1
    19    15     3    1
    20    15    16    1
    21    16    17    1
    22    17    18    1
    23    18    19    1
    24     9     4   ar
    25    14    10    1
    26    25    22    1
    27    19    15    1
    28    18    20    1
