@<TRIPOS>MOLECULE
*****
 35 39 0 0 0
SMALL
GASTEIGER

@<TRIPOS>ATOM
      1 C          -1.6417    3.5197   24.4002 C.3     1  UNL1        0.1350
      2 N          -1.1630    3.2261   23.0093 N.ar    1  UNL1       -0.2785
      3 C           0.1531    2.5382   22.7986 C.ar    1  UNL1        0.2633
      4 O           0.9906    2.1438   23.9790 O.2     1  UNL1       -0.2669
      5 C           0.6318    2.2446   21.4078 C.ar    1  UNL1        0.0755
      6 C          -0.2057    2.6390   20.2274 C.ar    1  UNL1        0.0576
      7 C          -1.5219    3.3269   20.4380 C.ar    1  UNL1        0.0687
      8 C          -2.5565    3.8305   19.4758 C.ar    1  UNL1        0.1248
      9 N          -3.6746    4.4353   20.2720 N.ar    1  UNL1       -0.1621
     10 N          -3.3310    4.3056   21.7264 N.ar    1  UNL1       -0.2115
     11 C          -2.0005    3.6205   21.8290 C.ar    1  UNL1        0.1503
     12 C          -4.1705    4.7779   22.8762 C.ar    1  UNL1        0.1119
     13 C          -4.1354    6.2199   23.2879 C.ar    1  UNL1        0.0238
     14 C          -4.9749    6.6923   24.4377 C.ar    1  UNL1        0.0313
     15 C          -5.8495    5.7227   25.1758 C.ar    1  UNL1        0.1425
     16 F          -6.6890    6.1951   26.3256 F       1  UNL1       -0.2041
     17 C          -5.8847    4.2807   24.7641 C.ar    1  UNL1        0.0608
     18 C          -5.0452    3.8083   23.6143 C.ar    1  UNL1        0.1600
     19 F          -5.0804    2.3664   23.2026 F       1  UNL1       -0.2025
     20 N           0.2730    2.3453   18.8365 N.pl3   1  UNL1       -0.3116
     21 H          -0.3520    2.4039   18.0781 H       1  UNL1        0.1522
     22 C           1.7041    1.9625   18.6010 C.ar    1  UNL1        0.0592
     23 C           2.0971    0.5153   18.5653 C.ar    1  UNL1        0.0200
     24 C           3.5282    0.1324   18.3298 C.ar    1  UNL1        0.0546
     25 C           4.5662    1.1966   18.1302 C.ar    1  UNL1        0.0055
     26 C           4.1732    2.6438   18.1659 C.ar    1  UNL1        0.0128
     27 C           2.7421    3.0267   18.4013 C.ar    1  UNL1        0.0710
     28 CL          2.3491    4.4739   18.4371 Cl      1  UNL1       -0.0810
     29 C           3.9213   -1.3148   18.2941 C.2     1  UNL1        0.2458
     30 O           4.9096   -1.7985   17.2747 O.2     1  UNL1       -0.2701
     31 N           3.3260   -2.2781   19.2777 N.am    1  UNL1       -0.3025
     32 H           2.6773   -1.9606   19.9468 H       1  UNL1        0.1497
     33 C           3.7191   -3.7253   19.2421 C.3     1  UNL1        0.0720
     34 C           3.5016   -5.1417   19.6851 C.3     1  UNL1        0.0213
     35 C           4.6173   -4.8153   18.7372 C.3     1  UNL1        0.0213
@<TRIPOS>BOND
     1     1     2    1
     2     2     3   ar
     3     3     4    2
     4     3     5   ar
     5     5     6   ar
     6     6    20    1
     7    20    22    1
     8    22    23   ar
     9    23    24   ar
    10    24    29    1
    11    29    30    2
    12    29    31   am
    13    31    33    1
    14    33    34    1
    15    34    35    1
    16    24    25   ar
    17    25    26   ar
    18    26    27   ar
    19    27    28    1
    20     6     7   ar
    21     7     8   ar
    22     8     9   ar
    23     9    10   ar
    24    10    12    1
    25    12    13   ar
    26    13    14   ar
    27    14    15   ar
    28    15    16    1
    29    15    17   ar
    30    17    18   ar
    31    18    19    1
    32    10    11   ar
    33    11     2   ar
    34    27    22   ar
    35    11     7   ar
    36    35    33    1
    37    18    12   ar
    38    20    21    1
    39    31    32    1
@<TRIPOS>MOLECULE
*****
 35 39 0 0 0
SMALL
GASTEIGER

@<TRIPOS>ATOM
      1 C           7.2515   -5.2843   24.6811 C.3     1  UNL1        0.1350
      2 N           7.2835   -4.3643   25.8654 N.ar    1  UNL1       -0.2785
      3 C           7.8170   -4.8520   27.1798 C.ar    1  UNL1        0.2633
      4 O           8.3184   -6.2598   27.3098 O.2     1  UNL1       -0.2669
      5 C           7.8489   -3.9321   28.3641 C.ar    1  UNL1        0.0755
      6 C           7.3475   -2.5244   28.2341 C.ar    1  UNL1        0.0576
      7 C           6.8140   -2.0367   26.9198 C.ar    1  UNL1        0.0687
      8 C           6.2556   -0.7116   26.4927 C.ar    1  UNL1        0.1248
      9 N           5.8785   -0.8127   25.0444 N.ar    1  UNL1       -0.1621
     10 N           6.2039   -2.2001   24.5763 N.ar    1  UNL1       -0.2115
     11 C           6.7820   -2.9566   25.7354 C.ar    1  UNL1        0.1503
     12 C           5.9888   -2.7369   23.1923 C.ar    1  UNL1        0.1119
     13 C           4.6586   -3.3155   22.8106 C.ar    1  UNL1        0.0238
     14 C           4.4435   -3.8523   21.4265 C.ar    1  UNL1        0.0313
     15 C           5.5585   -3.8104   20.4242 C.ar    1  UNL1        0.1425
     16 F           5.3434   -4.3471   19.0401 F       1  UNL1       -0.2041
     17 C           6.8888   -3.2317   20.8059 C.ar    1  UNL1        0.0608
     18 C           7.1039   -2.6949   22.1899 C.ar    1  UNL1        0.1600
     19 F           8.4341   -2.1163   22.5715 F       1  UNL1       -0.2025
     20 N           7.3795   -1.6044   29.4185 N.pl3   1  UNL1       -0.3116
     21 H           8.1488   -1.0057   29.5561 H       1  UNL1        0.1522
     22 C           6.2394   -1.5967   30.3932 C.ar    1  UNL1        0.0592
     23 C           4.9343   -0.9609   30.0157 C.ar    1  UNL1        0.0200
     24 C           3.7941   -0.9532   30.9903 C.ar    1  UNL1        0.0546
     25 C           3.9590   -1.5812   32.3424 C.ar    1  UNL1        0.0055
     26 C           5.2641   -2.2170   32.7200 C.ar    1  UNL1        0.0128
     27 C           6.4043   -2.2248   31.7453 C.ar    1  UNL1        0.0710
     28 CL          7.7093   -2.8606   32.1229 Cl      1  UNL1       -0.0810
     29 C           2.4890   -0.3174   30.6128 C.2     1  UNL1        0.2458
     30 O           1.9006    0.7577   31.4777 O.2     1  UNL1       -0.2701
     31 N           1.7723   -0.7567   29.3706 N.am    1  UNL1       -0.3025
     32 H           2.1585   -1.4624   28.8030 H       1  UNL1        0.1497
     33 C           0.4672   -0.1210   28.9930 C.3     1  UNL1        0.0720
     34 C          -1.0153   -0.2214   28.7874 C.3     1  UNL1        0.0213
     35 C          -0.3109    1.0805   28.5448 C.3     1  UNL1        0.0213
@<TRIPOS>BOND
     1     1     2    1
     2     2     3   ar
     3     3     4    2
     4     3     5   ar
     5     5     6   ar
     6     6    20    1
     7    20    22    1
     8    22    23   ar
     9    23    24   ar
    10    24    29    1
    11    29    30    2
    12    29    31   am
    13    31    33    1
    14    33    34    1
    15    34    35    1
    16    24    25   ar
    17    25    26   ar
    18    26    27   ar
    19    27    28    1
    20     6     7   ar
    21     7     8   ar
    22     8     9   ar
    23     9    10   ar
    24    10    12    1
    25    12    13   ar
    26    13    14   ar
    27    14    15   ar
    28    15    16    1
    29    15    17   ar
    30    17    18   ar
    31    18    19    1
    32    10    11   ar
    33    11     2   ar
    34    27    22   ar
    35    11     7   ar
    36    35    33    1
    37    18    12   ar
    38    20    21    1
    39    31    32    1
@<TRIPOS>MOLECULE
*****
 35 39 0 0 0
SMALL
GASTEIGER

@<TRIPOS>ATOM
      1 C           1.5255   -0.8522   20.0955 C.3     1  UNL1        0.1350
      2 N           1.5936   -0.1072   21.3957 N.ar    1  UNL1       -0.2785
      3 C           0.5935    0.9694   21.6965 C.ar    1  UNL1        0.2633
      4 O          -0.4748    1.3011   20.6971 O.2     1  UNL1       -0.2669
      5 C           0.6615    1.7143   22.9966 C.ar    1  UNL1        0.0755
      6 C           1.7298    1.3826   23.9961 C.ar    1  UNL1        0.0576
      7 C           2.7300    0.3059   23.6952 C.ar    1  UNL1        0.0687
      8 C           3.8868   -0.2371   24.4806 C.ar    1  UNL1        0.1248
      9 N           4.5337   -1.3177   23.6658 N.ar    1  UNL1       -0.1621
     10 N           3.7766   -1.4425   22.3768 N.ar    1  UNL1       -0.2115
     11 C           2.6619   -0.4390   22.3950 C.ar    1  UNL1        0.1503
     12 C           4.0809   -2.4022   21.2650 C.ar    1  UNL1        0.1119
     13 C           3.8093   -3.8666   21.4429 C.ar    1  UNL1        0.0238
     14 C           4.1136   -4.8264   20.3310 C.ar    1  UNL1        0.0313
     15 C           4.6895   -4.3218   19.0413 C.ar    1  UNL1        0.1425
     16 F           4.9938   -5.2815   17.9294 F       1  UNL1       -0.2041
     17 C           4.9612   -2.8573   18.8633 C.ar    1  UNL1        0.0608
     18 C           4.6569   -1.8975   19.9751 C.ar    1  UNL1        0.1600
     19 F           4.9285   -0.4331   19.7972 F       1  UNL1       -0.2025
     20 N           1.7979    2.1275   25.2963 N.pl3   1  UNL1       -0.3116
     21 H           2.1623    3.0418   25.3213 H       1  UNL1        0.1522
     22 C           1.3107    1.4796   26.5583 C.ar    1  UNL1        0.0592
     23 C           2.2850    0.8116   27.4827 C.ar    1  UNL1        0.0200
     24 C           1.7979    0.1636   28.7448 C.ar    1  UNL1        0.0546
     25 C           0.3365    0.1836   29.0824 C.ar    1  UNL1        0.0055
     26 C          -0.6378    0.8516   28.1579 C.ar    1  UNL1        0.0128
     27 C          -0.1507    1.4995   26.8959 C.ar    1  UNL1        0.0710
     28 CL         -1.1249    2.1675   25.9714 Cl      1  UNL1       -0.0810
     29 C           2.7721   -0.5044   29.6694 C.2     1  UNL1        0.2458
     30 O           2.3187   -0.9870   31.0152 O.2     1  UNL1       -0.2701
     31 N           4.1997   -0.6896   29.2479 N.am    1  UNL1       -0.3025
     32 H           4.4972   -0.3728   28.3645 H       1  UNL1        0.1497
     33 C           5.1740   -1.3576   30.1724 C.3     1  UNL1        0.0720
     34 C           5.7882   -1.4944   31.5340 C.3     1  UNL1        0.0213
     35 C           6.2472   -2.3778   30.4120 C.3     1  UNL1        0.0213
@<TRIPOS>BOND
     1     1     2    1
     2     2     3   ar
     3     3     4    2
     4     3     5   ar
     5     5     6   ar
     6     6    20    1
     7    20    22    1
     8    22    23   ar
     9    23    24   ar
    10    24    29    1
    11    29    30    2
    12    29    31   am
    13    31    33    1
    14    33    34    1
    15    34    35    1
    16    24    25   ar
    17    25    26   ar
    18    26    27   ar
    19    27    28    1
    20     6     7   ar
    21     7     8   ar
    22     8     9   ar
    23     9    10   ar
    24    10    12    1
    25    12    13   ar
    26    13    14   ar
    27    14    15   ar
    28    15    16    1
    29    15    17   ar
    30    17    18   ar
    31    18    19    1
    32    10    11   ar
    33    11     2   ar
    34    27    22   ar
    35    11     7   ar
    36    35    33    1
    37    18    12   ar
    38    20    21    1
    39    31    32    1
@<TRIPOS>MOLECULE
*****
 35 39 0 0 0
SMALL
GASTEIGER

@<TRIPOS>ATOM
      1 C           5.2673    0.4808   21.8163 C.3     1  UNL1        0.1350
      2 N           6.1489   -0.7089   22.0558 N.ar    1  UNL1       -0.2785
      3 C           7.2505   -0.6339   23.0710 C.ar    1  UNL1        0.2633
      4 O           7.4705    0.6310   23.8468 O.2     1  UNL1       -0.2669
      5 C           8.1321   -1.8235   23.3104 C.ar    1  UNL1        0.0755
      6 C           7.9121   -3.0884   22.5347 C.ar    1  UNL1        0.0576
      7 C           6.8105   -3.1635   21.5194 C.ar    1  UNL1        0.0687
      8 C           6.3572   -4.2669   20.6100 C.ar    1  UNL1        0.1248
      9 N           5.1954   -3.7591   19.8085 N.ar    1  UNL1       -0.1621
     10 N           4.9307   -2.3418   20.2226 N.ar    1  UNL1       -0.2115
     11 C           5.9288   -1.9737   21.2800 C.ar    1  UNL1        0.1503
     12 C           3.8564   -1.4495   19.6753 C.ar    1  UNL1        0.1119
     13 C           2.5463   -1.3247   20.3950 C.ar    1  UNL1        0.0238
     14 C           1.4719   -0.4322   19.8477 C.ar    1  UNL1        0.0313
     15 C           1.7077    0.3353   18.5808 C.ar    1  UNL1        0.1425
     16 F           0.6334    1.2277   18.0335 F       1  UNL1       -0.2041
     17 C           3.0179    0.2105   17.8611 C.ar    1  UNL1        0.0608
     18 C           4.0922   -0.6819   18.4083 C.ar    1  UNL1        0.1600
     19 F           5.4023   -0.8067   17.6886 F       1  UNL1       -0.2025
     20 N           8.7938   -4.2781   22.7742 N.pl3   1  UNL1       -0.3116
     21 H           9.5788   -4.4325   22.2004 H       1  UNL1        0.1522
     22 C           8.4794   -5.2325   23.8878 C.ar    1  UNL1        0.0592
     23 C           8.1629   -4.7088   25.2573 C.ar    1  UNL1        0.0200
     24 C           7.8485   -5.6631   26.3711 C.ar    1  UNL1        0.0546
     25 C           7.8507   -7.1411   26.1153 C.ar    1  UNL1        0.0055
     26 C           8.1673   -7.6648   24.7458 C.ar    1  UNL1        0.0128
     27 C           8.4816   -6.7105   23.6320 C.ar    1  UNL1        0.0710
     28 CL          8.7982   -7.2342   22.2625 Cl      1  UNL1       -0.0810
     29 C           7.5319   -5.1395   27.7406 C.2     1  UNL1        0.2458
     30 O           7.3155   -3.6701   27.9503 O.2     1  UNL1       -0.2701
     31 N           7.4318   -6.0854   28.9005 N.am    1  UNL1       -0.3025
     32 H           7.5739   -7.0498   28.7628 H       1  UNL1        0.1497
     33 C           7.1152   -5.5619   30.2701 C.3     1  UNL1        0.0720
     34 C           6.8506   -5.8083   31.7258 C.3     1  UNL1        0.0213
     35 C           6.8316   -4.4087   31.1864 C.3     1  UNL1        0.0213
@<TRIPOS>BOND
     1     1     2    1
     2     2     3   ar
     3     3     4    2
     4     3     5   ar
     5     5     6   ar
     6     6    20    1
     7    20    22    1
     8    22    23   ar
     9    23    24   ar
    10    24    29    1
    11    29    30    2
    12    29    31   am
    13    31    33    1
    14    33    34    1
    15    34    35    1
    16    24    25   ar
    17    25    26   ar
    18    26    27   ar
    19    27    28    1
    20     6     7   ar
    21     7     8   ar
    22     8     9   ar
    23     9    10   ar
    24    10    12    1
    25    12    13   ar
    26    13    14   ar
    27    14    15   ar
    28    15    16    1
    29    15    17   ar
    30    17    18   ar
    31    18    19    1
    32    10    11   ar
    33    11     2   ar
    34    27    22   ar
    35    11     7   ar
    36    35    33    1
    37    18    12   ar
    38    20    21    1
    39    31    32    1
@<TRIPOS>MOLECULE
*****
 35 39 0 0 0
SMALL
GASTEIGER

@<TRIPOS>ATOM
      1 C           5.8141    0.8417   30.1135 C.3     1  UNL1        0.1350
      2 N           4.8017    0.8355   29.0066 N.ar    1  UNL1       -0.2785
      3 C           5.1944    1.2792   27.6286 C.ar    1  UNL1        0.2633
      4 O           6.5995    1.7290   27.3575 O.2     1  UNL1       -0.2669
      5 C           4.1822    1.2730   26.5218 C.ar    1  UNL1        0.0755
      6 C           2.7770    0.8231   26.7929 C.ar    1  UNL1        0.0576
      7 C           2.3844    0.3795   28.1709 C.ar    1  UNL1        0.0687
      8 C           1.0844   -0.1130   28.7344 C.ar    1  UNL1        0.1248
      9 N           1.2933   -0.4112   30.1895 N.ar    1  UNL1       -0.1621
     10 N           2.7224   -0.1030   30.5254 N.ar    1  UNL1       -0.2115
     11 C           3.3967    0.3857   29.2778 C.ar    1  UNL1        0.1503
     12 C           3.3644   -0.2565   31.8723 C.ar    1  UNL1        0.1119
     13 C           4.0385   -1.5452   32.2393 C.ar    1  UNL1        0.0238
     14 C           4.6806   -1.6988   33.5863 C.ar    1  UNL1        0.0313
     15 C           4.6484   -0.5637   34.5662 C.ar    1  UNL1        0.1425
     16 F           5.2904   -0.7172   35.9131 F       1  UNL1       -0.2041
     17 C           3.9742    0.7251   34.1992 C.ar    1  UNL1        0.0608
     18 C           3.3322    0.8787   32.8523 C.ar    1  UNL1        0.1600
     19 F           2.6580    2.1674   32.4853 F       1  UNL1       -0.2025
     20 N           1.7648    0.8169   25.6859 N.pl3   1  UNL1       -0.3116
     21 H           0.8036    0.8423   25.8977 H       1  UNL1        0.1522
     22 C           2.2169    0.7721   24.2564 C.ar    1  UNL1        0.0592
     23 C           2.6784   -0.5227   23.6561 C.ar    1  UNL1        0.0200
     24 C           3.1305   -0.5676   22.2265 C.ar    1  UNL1        0.0546
     25 C           3.1211    0.6824   21.3974 C.ar    1  UNL1        0.0055
     26 C           2.6596    1.9772   21.9977 C.ar    1  UNL1        0.0128
     27 C           2.2075    2.0221   23.4273 C.ar    1  UNL1        0.0710
     28 CL          1.7459    3.3169   24.0276 Cl      1  UNL1       -0.0810
     29 C           3.5921   -1.8624   21.6261 C.2     1  UNL1        0.2458
     30 O           4.3254   -2.8616   22.4709 O.2     1  UNL1       -0.2701
     31 N           3.3202   -2.1578   20.1808 N.am    1  UNL1       -0.3025
     32 H           2.8389   -1.5020   19.6264 H       1  UNL1        0.1497
     33 C           3.7818   -3.4526   19.5803 C.3     1  UNL1        0.0720
     34 C           3.6187   -4.9330   19.4021 C.3     1  UNL1        0.0213
     35 C           4.7441   -4.2147   18.7183 C.3     1  UNL1        0.0213
@<TRIPOS>BOND
     1     1     2    1
     2     2     3   ar
     3     3     4    2
     4     3     5   ar
     5     5     6   ar
     6     6    20    1
     7    20    22    1
     8    22    23   ar
     9    23    24   ar
    10    24    29    1
    11    29    30    2
    12    29    31   am
    13    31    33    1
    14    33    34    1
    15    34    35    1
    16    24    25   ar
    17    25    26   ar
    18    26    27   ar
    19    27    28    1
    20     6     7   ar
    21     7     8   ar
    22     8     9   ar
    23     9    10   ar
    24    10    12    1
    25    12    13   ar
    26    13    14   ar
    27    14    15   ar
    28    15    16    1
    29    15    17   ar
    30    17    18   ar
    31    18    19    1
    32    10    11   ar
    33    11     2   ar
    34    27    22   ar
    35    11     7   ar
    36    35    33    1
    37    18    12   ar
    38    20    21    1
    39    31    32    1
@<TRIPOS>MOLECULE
*****
 35 39 0 0 0
SMALL
GASTEIGER

@<TRIPOS>ATOM
      1 C           6.2498    0.8586   30.6208 C.3     1  UNL1        0.1350
      2 N           5.3701    0.6889   29.4178 N.ar    1  UNL1       -0.2785
      3 C           5.8961    1.0169   28.0518 C.ar    1  UNL1        0.2633
      4 O           7.3018    1.5145   27.8890 O.2     1  UNL1       -0.2669
      5 C           5.0165    0.8472   26.8488 C.ar    1  UNL1        0.0755
      6 C           3.6108    0.3496   27.0116 C.ar    1  UNL1        0.0576
      7 C           3.0848    0.0216   28.3775 C.ar    1  UNL1        0.0687
      8 C           1.7523   -0.4841   28.8452 C.ar    1  UNL1        0.1248
      9 N           1.8085   -0.6270   30.3373 N.ar    1  UNL1       -0.1621
     10 N           3.1757   -0.2096   30.7918 N.ar    1  UNL1       -0.2115
     11 C           3.9645    0.1913   29.5806 C.ar    1  UNL1        0.1503
     12 C           3.6676   -0.1955   32.2088 C.ar    1  UNL1        0.1119
     13 C           3.3856    0.9859   33.0889 C.ar    1  UNL1        0.0238
     14 C           3.8776    1.0000   34.5059 C.ar    1  UNL1        0.0313
     15 C           4.6515   -0.1673   35.0427 C.ar    1  UNL1        0.1425
     16 F           5.1434   -0.1533   36.4597 F       1  UNL1       -0.2041
     17 C           4.9334   -1.3489   34.1626 C.ar    1  UNL1        0.0608
     18 C           4.4415   -1.3630   32.7457 C.ar    1  UNL1        0.1600
     19 F           4.7235   -2.5444   31.8656 F       1  UNL1       -0.2025
     20 N           2.7311    0.1800   25.8085 N.pl3   1  UNL1       -0.3116
     21 H           1.8354    0.5883   25.7920 H       1  UNL1        0.1522
     22 C           3.2162   -0.6118   24.6304 C.ar    1  UNL1        0.0592
     23 C           4.2191   -1.7098   24.8265 C.ar    1  UNL1        0.0200
     24 C           4.7042   -2.5016   23.6485 C.ar    1  UNL1        0.0546
     25 C           4.1864   -2.1953   22.2744 C.ar    1  UNL1        0.0055
     26 C           3.1835   -1.0973   22.0783 C.ar    1  UNL1        0.0128
     27 C           2.6984   -0.3055   23.2563 C.ar    1  UNL1        0.0710
     28 CL          1.6955    0.7926   23.0603 Cl      1  UNL1       -0.0810
     29 C           5.7072   -3.5997   23.8444 C.2     1  UNL1        0.2458
     30 O           6.2373   -4.3515   22.6597 O.2     1  UNL1       -0.2701
     31 N           6.1799   -3.9459   25.2252 N.am    1  UNL1       -0.3025
     32 H           5.8319   -3.4525   26.0028 H       1  UNL1        0.1497
     33 C           7.1828   -5.0440   25.4213 C.3     1  UNL1        0.0720
     34 C           7.4937   -6.4864   25.6909 C.3     1  UNL1        0.0213
     35 C           8.6090   -5.5034   25.4913 C.3     1  UNL1        0.0213
@<TRIPOS>BOND
     1     1     2    1
     2     2     3   ar
     3     3     4    2
     4     3     5   ar
     5     5     6   ar
     6     6    20    1
     7    20    22    1
     8    22    23   ar
     9    23    24   ar
    10    24    29    1
    11    29    30    2
    12    29    31   am
    13    31    33    1
    14    33    34    1
    15    34    35    1
    16    24    25   ar
    17    25    26   ar
    18    26    27   ar
    19    27    28    1
    20     6     7   ar
    21     7     8   ar
    22     8     9   ar
    23     9    10   ar
    24    10    12    1
    25    12    13   ar
    26    13    14   ar
    27    14    15   ar
    28    15    16    1
    29    15    17   ar
    30    17    18   ar
    31    18    19    1
    32    10    11   ar
    33    11     2   ar
    34    27    22   ar
    35    11     7   ar
    36    35    33    1
    37    18    12   ar
    38    20    21    1
    39    31    32    1
@<TRIPOS>MOLECULE
*****
 35 39 0 0 0
SMALL
GASTEIGER

@<TRIPOS>ATOM
      1 C           6.5143   -3.9471   31.8673 C.3     1  UNL1        0.1350
      2 N           6.7752   -3.5731   30.4383 N.ar    1  UNL1       -0.2785
      3 C           7.1230   -4.6342   29.4368 C.ar    1  UNL1        0.2633
      4 O           7.2100   -6.0694   29.8645 O.2     1  UNL1       -0.2669
      5 C           7.3839   -4.2603   28.0079 C.ar    1  UNL1        0.0755
      6 C           7.2969   -2.8251   27.5802 C.ar    1  UNL1        0.0576
      7 C           6.9490   -1.7640   28.5817 C.ar    1  UNL1        0.0687
      8 C           6.7909   -0.2777   28.4552 C.ar    1  UNL1        0.1248
      9 N           6.4323    0.2668   29.8060 N.ar    1  UNL1       -0.1621
     10 N           6.3688   -0.8828   30.7674 N.ar    1  UNL1       -0.2115
     11 C           6.6882   -2.1380   30.0107 C.ar    1  UNL1        0.1503
     12 C           6.0431   -0.7931   32.2289 C.ar    1  UNL1        0.1119
     13 C           7.1096   -0.4135   33.2130 C.ar    1  UNL1        0.0238
     14 C           6.7839   -0.3237   34.6745 C.ar    1  UNL1        0.0313
     15 C           5.3919   -0.6135   35.1518 C.ar    1  UNL1        0.1425
     16 F           5.0662   -0.5238   36.6133 F       1  UNL1       -0.2041
     17 C           4.3253   -0.9932   34.1676 C.ar    1  UNL1        0.0608
     18 C           4.6509   -1.0829   32.7062 C.ar    1  UNL1        0.1600
     19 F           3.5844   -1.4625   31.7221 F       1  UNL1       -0.2025
     20 N           7.5578   -2.4512   26.1512 N.pl3   1  UNL1       -0.3116
     21 H           8.4552   -2.1542   25.8760 H       1  UNL1        0.1522
     22 C           6.4514   -2.5299   25.1414 C.ar    1  UNL1        0.0592
     23 C           5.3463   -1.5159   25.1593 C.ar    1  UNL1        0.0200
     24 C           4.2398   -1.5945   24.1495 C.ar    1  UNL1        0.0546
     25 C           4.2386   -2.6871   23.1218 C.ar    1  UNL1        0.0055
     26 C           5.3438   -3.7012   23.1039 C.ar    1  UNL1        0.0128
     27 C           6.4502   -3.6225   24.1137 C.ar    1  UNL1        0.0710
     28 CL          7.5554   -4.6366   24.0958 Cl      1  UNL1       -0.0810
     29 C           3.1346   -0.5805   24.1673 C.2     1  UNL1        0.2458
     30 O           2.5154   -0.1233   22.8799 O.2     1  UNL1       -0.2701
     31 N           2.6486   -0.0238   25.4727 N.am    1  UNL1       -0.3025
     32 H           3.0551   -0.3239   26.3176 H       1  UNL1        0.1497
     33 C           1.5434    0.9902   25.4906 C.3     1  UNL1        0.0720
     34 C           1.0931    2.4210   25.4916 C.3     1  UNL1        0.0213
     35 C           0.0795    1.3157   25.5206 C.3     1  UNL1        0.0213
@<TRIPOS>BOND
     1     1     2    1
     2     2     3   ar
     3     3     4    2
     4     3     5   ar
     5     5     6   ar
     6     6    20    1
     7    20    22    1
     8    22    23   ar
     9    23    24   ar
    10    24    29    1
    11    29    30    2
    12    29    31   am
    13    31    33    1
    14    33    34    1
    15    34    35    1
    16    24    25   ar
    17    25    26   ar
    18    26    27   ar
    19    27    28    1
    20     6     7   ar
    21     7     8   ar
    22     8     9   ar
    23     9    10   ar
    24    10    12    1
    25    12    13   ar
    26    13    14   ar
    27    14    15   ar
    28    15    16    1
    29    15    17   ar
    30    17    18   ar
    31    18    19    1
    32    10    11   ar
    33    11     2   ar
    34    27    22   ar
    35    11     7   ar
    36    35    33    1
    37    18    12   ar
    38    20    21    1
    39    31    32    1
@<TRIPOS>MOLECULE
*****
 35 39 0 0 0
SMALL
GASTEIGER

@<TRIPOS>ATOM
      1 C           5.8455    0.9029   21.6639 C.3     1  UNL1        0.1350
      2 N           6.0625    0.1417   22.9381 N.ar    1  UNL1       -0.2785
      3 C           6.5633    0.8526   24.1604 C.ar    1  UNL1        0.2633
      4 O           6.8470    2.3246   24.1083 O.2     1  UNL1       -0.2669
      5 C           6.7803    0.0915   25.4345 C.ar    1  UNL1        0.0755
      6 C           6.4965   -1.3806   25.4865 C.ar    1  UNL1        0.0576
      7 C           5.9958   -2.0914   24.2643 C.ar    1  UNL1        0.0687
      8 C           5.6321   -3.5252   24.0155 C.ar    1  UNL1        0.1248
      9 N           5.1903   -3.6502   22.5875 N.ar    1  UNL1       -0.1621
     10 N           5.2809   -2.2937   21.9537 N.ar    1  UNL1       -0.2115
     11 C           5.7788   -1.3303   22.9901 C.ar    1  UNL1        0.1503
     12 C           4.9346   -1.9593   20.5331 C.ar    1  UNL1        0.1119
     13 C           5.9581   -2.1340   19.4506 C.ar    1  UNL1        0.0238
     14 C           5.6118   -1.7997   18.0299 C.ar    1  UNL1        0.0313
     15 C           4.2420   -1.2906   17.6918 C.ar    1  UNL1        0.1425
     16 F           3.8956   -0.9562   16.2711 F       1  UNL1       -0.2041
     17 C           3.2184   -1.1159   18.7744 C.ar    1  UNL1        0.0608
     18 C           3.5647   -1.4502   20.1950 C.ar    1  UNL1        0.1600
     19 F           2.5412   -1.2755   21.2775 F       1  UNL1       -0.2025
     20 N           6.7136   -2.1416   26.7608 N.pl3   1  UNL1       -0.3116
     21 H           7.2415   -2.9726   26.7541 H       1  UNL1        0.1522
     22 C           6.1263   -1.6366   28.0453 C.ar    1  UNL1        0.0592
     23 C           4.6517   -1.3805   28.1461 C.ar    1  UNL1        0.0200
     24 C           4.0643   -0.8755   29.4306 C.ar    1  UNL1        0.0546
     25 C           4.9514   -0.6266   30.6143 C.ar    1  UNL1        0.0055
     26 C           6.4260   -0.8828   30.5134 C.ar    1  UNL1        0.0128
     27 C           7.0134   -1.3878   29.2290 C.ar    1  UNL1        0.0710
     28 CL          8.4879   -1.6439   29.1281 Cl      1  UNL1       -0.0810
     29 C           2.5898   -0.6193   29.5315 C.2     1  UNL1        0.2458
     30 O           1.9194   -0.6147   30.8734 O.2     1  UNL1       -0.2701
     31 N           1.7857   -0.3677   28.2905 N.am    1  UNL1       -0.3025
     32 H           2.2257   -0.3707   27.4098 H       1  UNL1        0.1497
     33 C           0.3111   -0.1115   28.3914 C.3     1  UNL1        0.0720
     34 C          -0.8841    0.7385   28.0771 C.3     1  UNL1        0.0213
     35 C          -1.0475   -0.5178   28.8802 C.3     1  UNL1        0.0213
@<TRIPOS>BOND
     1     1     2    1
     2     2     3   ar
     3     3     4    2
     4     3     5   ar
     5     5     6   ar
     6     6    20    1
     7    20    22    1
     8    22    23   ar
     9    23    24   ar
    10    24    29    1
    11    29    30    2
    12    29    31   am
    13    31    33    1
    14    33    34    1
    15    34    35    1
    16    24    25   ar
    17    25    26   ar
    18    26    27   ar
    19    27    28    1
    20     6     7   ar
    21     7     8   ar
    22     8     9   ar
    23     9    10   ar
    24    10    12    1
    25    12    13   ar
    26    13    14   ar
    27    14    15   ar
    28    15    16    1
    29    15    17   ar
    30    17    18   ar
    31    18    19    1
    32    10    11   ar
    33    11     2   ar
    34    27    22   ar
    35    11     7   ar
    36    35    33    1
    37    18    12   ar
    38    20    21    1
    39    31    32    1
@<TRIPOS>MOLECULE
*****
 35 39 0 0 0
SMALL
GASTEIGER

@<TRIPOS>ATOM
      1 C           6.5469    1.6731   32.8855 C.3     1  UNL1        0.1350
      2 N           6.9261    0.2383   32.6672 N.ar    1  UNL1       -0.2785
      3 C           8.3201   -0.1122   32.2385 C.ar    1  UNL1        0.2633
      4 O           9.3350    0.9722   32.0281 O.2     1  UNL1       -0.2669
      5 C           8.6992   -1.5469   32.0201 C.ar    1  UNL1        0.0755
      6 C           7.6843   -2.6313   32.2305 C.ar    1  UNL1        0.0576
      7 C           6.2903   -2.2808   32.6592 C.ar    1  UNL1        0.0687
      8 C           5.0847   -3.1271   32.9426 C.ar    1  UNL1        0.1248
      9 N           3.9605   -2.2154   33.3361 N.ar    1  UNL1       -0.1621
     10 N           4.4713   -0.8056   33.2959 N.ar    1  UNL1       -0.2115
     11 C           5.9112   -0.8460   32.8775 C.ar    1  UNL1        0.1503
     12 C           3.6809    0.4280   33.6176 C.ar    1  UNL1        0.1119
     13 C           3.8422    1.0956   34.9512 C.ar    1  UNL1        0.0238
     14 C           3.0518    2.3292   35.2729 C.ar    1  UNL1        0.0313
     15 C           2.1001    2.8952   34.2612 C.ar    1  UNL1        0.1425
     16 F           1.3097    4.1288   34.5829 F       1  UNL1       -0.2041
     17 C           1.9388    2.2276   32.9276 C.ar    1  UNL1        0.0608
     18 C           2.7291    0.9941   32.6058 C.ar    1  UNL1        0.1600
     19 F           2.5677    0.3265   31.2723 F       1  UNL1       -0.2025
     20 N           8.0635   -4.0661   32.0121 N.pl3   1  UNL1       -0.3116
     21 H           8.4289   -4.5973   32.7560 H       1  UNL1        0.1522
     22 C           7.8861   -4.6913   30.6603 C.ar    1  UNL1        0.0592
     23 C           7.2497   -3.9090   29.5499 C.ar    1  UNL1        0.0200
     24 C           7.0721   -4.5341   28.1980 C.ar    1  UNL1        0.0546
     25 C           7.5310   -5.9416   27.9565 C.ar    1  UNL1        0.0055
     26 C           8.1674   -6.7240   29.0669 C.ar    1  UNL1        0.0128
     27 C           8.3449   -6.0988   30.4188 C.ar    1  UNL1        0.0710
     28 CL          8.9813   -6.8812   31.5292 Cl      1  UNL1       -0.0810
     29 C           6.4358   -3.7518   27.0875 C.2     1  UNL1        0.2458
     30 O           5.6454   -2.5155   27.3983 O.2     1  UNL1       -0.2701
     31 N           6.5898   -4.2060   25.6662 N.am    1  UNL1       -0.3025
     32 H           7.1086   -5.0175   25.4623 H       1  UNL1        0.1497
     33 C           5.9535   -3.4238   24.5557 C.3     1  UNL1        0.0720
     34 C           5.1370   -3.3824   23.2981 C.3     1  UNL1        0.0213
     35 C           5.6678   -2.1104   23.8899 C.3     1  UNL1        0.0213
@<TRIPOS>BOND
     1     1     2    1
     2     2     3   ar
     3     3     4    2
     4     3     5   ar
     5     5     6   ar
     6     6    20    1
     7    20    22    1
     8    22    23   ar
     9    23    24   ar
    10    24    29    1
    11    29    30    2
    12    29    31   am
    13    31    33    1
    14    33    34    1
    15    34    35    1
    16    24    25   ar
    17    25    26   ar
    18    26    27   ar
    19    27    28    1
    20     6     7   ar
    21     7     8   ar
    22     8     9   ar
    23     9    10   ar
    24    10    12    1
    25    12    13   ar
    26    13    14   ar
    27    14    15   ar
    28    15    16    1
    29    15    17   ar
    30    17    18   ar
    31    18    19    1
    32    10    11   ar
    33    11     2   ar
    34    27    22   ar
    35    11     7   ar
    36    35    33    1
    37    18    12   ar
    38    20    21    1
    39    31    32    1
