@<TRIPOS>MOLECULE
*****
 29 32 0 0 0
SMALL
GASTEIGER

@<TRIPOS>ATOM
      1 C          -4.2222  -16.0928   26.1044 C.3     1  UNL1        0.0356
      2 C          -5.6009  -15.9920   25.5218 C.ar    1  UNL1        0.0290
      3 C          -6.7530  -15.5782   26.3886 C.ar    1  UNL1        0.1003
      4 N          -8.1316  -15.4774   25.8060 N.ar    1  UNL1       -0.2123
      5 C          -8.3580  -15.7904   24.3566 C.ar    1  UNL1        0.2219
      6 N          -7.2058  -16.2042   23.4898 N.ar    1  UNL1       -0.1989
      7 C          -5.8272  -16.3050   24.0724 C.ar    1  UNL1        0.1320
      8 N          -4.6750  -16.7188   23.2056 N.pl3   1  UNL1       -0.2934
      9 C          -4.5060  -18.1583   22.8195 C.3     1  UNL1        0.0926
     10 C          -3.3539  -18.5721   21.9528 C.3     1  UNL1        0.0302
     11 C          -2.3707  -17.5462   21.4721 C.3     1  UNL1        0.0737
     12 C          -1.3132  -16.6379   20.9184 C.3     1  UNL1        0.0300
     13 C          -0.3626  -17.4713   20.1109 C.3     1  UNL1        0.0899
     14 N          -0.8327  -18.8947   20.1656 N.am    1  UNL1       -0.3043
     15 C          -2.0737  -18.9410   21.0068 C.2     1  UNL1        0.2217
     16 O          -2.8768  -20.1669   21.3266 O.2     1  UNL1       -0.2751
     17 C          -2.5397  -16.1067   21.8582 C.3     1  UNL1        0.0302
     18 C          -3.6919  -15.6930   22.7249 C.3     1  UNL1        0.0926
     19 H          -0.4022  -19.6635   19.7264 H       1  UNL1        0.1494
     20 N          -9.7365  -15.6896   23.7739 N.pl3   1  UNL1       -0.2800
     21 H         -10.4184  -15.1342   24.2163 H       1  UNL1        0.1552
     22 C         -10.0760  -16.4350   22.5173 C.ar    1  UNL1        0.0908
     23 C         -10.4254  -15.8201   21.1945 C.ar    1  UNL1        0.1365
     24 N         -10.6911  -16.9313   20.2225 N.ar    1  UNL1       -0.1619
     25 N         -10.5058  -18.2329   20.9446 N.ar    1  UNL1       -0.1900
     26 C         -10.1256  -17.9262   22.3628 C.ar    1  UNL1        0.1168
     27 C         -10.6715  -19.6011   20.3524 C.3     1  UNL1        0.4298
     28 F         -10.3270  -19.8419   18.9125 F       1  UNL1       -0.1711
     29 F         -11.1817  -20.7284   21.2002 F       1  UNL1       -0.1711
@<TRIPOS>BOND
     1     1     2    1
     2     2     3   ar
     3     3     4   ar
     4     4     5   ar
     5     5    20    1
     6    20    22    1
     7    22    23   ar
     8    23    24   ar
     9    24    25   ar
    10    25    27    1
    11    27    28    1
    12    27    29    1
    13    25    26   ar
    14     5     6   ar
    15     6     7   ar
    16     7     8    1
    17     8     9    1
    18     9    10    1
    19    10    11    1
    20    11    12    1
    21    12    13    1
    22    13    14    1
    23    14    15   am
    24    15    16    2
    25    11    17    1
    26    17    18    1
    27     7     2   ar
    28    18     8    1
    29    26    22   ar
    30    15    11    1
    31    20    21    1
    32    14    19    1
@<TRIPOS>MOLECULE
*****
 29 32 0 0 0
SMALL
GASTEIGER

@<TRIPOS>ATOM
      1 C          -5.0682  -15.1590   25.5623 C.3     1  UNL1        0.0356
      2 C          -6.3977  -15.7613   25.2161 C.ar    1  UNL1        0.0290
      3 C          -7.6131  -15.4096   26.0218 C.ar    1  UNL1        0.1003
      4 N          -8.9425  -16.0120   25.6756 N.ar    1  UNL1       -0.2123
      5 C          -9.0565  -16.9660   24.5238 C.ar    1  UNL1        0.2219
      6 N          -7.8410  -17.3178   23.7181 N.ar    1  UNL1       -0.1989
      7 C          -6.5117  -16.7154   24.0643 C.ar    1  UNL1        0.1320
      8 N          -5.2962  -17.0671   23.2586 N.pl3   1  UNL1       -0.2934
      9 C          -4.2243  -16.0426   23.0321 C.3     1  UNL1        0.0926
     10 C          -3.0089  -16.3943   22.2265 C.3     1  UNL1        0.0302
     11 C          -2.8654  -17.7706   21.6474 C.3     1  UNL1        0.0737
     12 C          -2.5847  -19.0987   21.0092 C.3     1  UNL1        0.0300
     13 C          -1.2630  -19.0049   20.3058 C.3     1  UNL1        0.0899
     14 N          -0.7270  -17.6187   20.5094 N.am    1  UNL1       -0.3043
     15 C          -1.7173  -16.8559   21.3385 C.2     1  UNL1        0.2217
     16 O          -1.5831  -15.4290   21.7811 O.2     1  UNL1       -0.2751
     17 C          -3.9373  -18.7951   21.8739 C.3     1  UNL1        0.0302
     18 C          -5.1527  -18.4433   22.6795 C.3     1  UNL1        0.0926
     19 H           0.1251  -17.2707   20.1601 H       1  UNL1        0.1494
     20 N         -10.3859  -17.5684   24.1776 N.pl3   1  UNL1       -0.2800
     21 H         -10.8720  -18.1048   24.8448 H       1  UNL1        0.1552
     22 C         -10.9746  -17.3535   22.8148 C.ar    1  UNL1        0.0908
     23 C         -12.0023  -18.2217   22.1514 C.ar    1  UNL1        0.1365
     24 N         -12.3019  -17.6375   20.8027 N.ar    1  UNL1       -0.1619
     25 N         -11.4593  -16.4082   20.6325 N.ar    1  UNL1       -0.1900
     26 C         -10.6391  -16.2327   21.8761 C.ar    1  UNL1        0.1168
     27 C         -11.4404  -15.5117   19.4300 C.3     1  UNL1        0.4298
     28 F         -12.6506  -15.4126   18.5493 F       1  UNL1       -0.1711
     29 F         -10.2112  -14.7145   19.1083 F       1  UNL1       -0.1711
@<TRIPOS>BOND
     1     1     2    1
     2     2     3   ar
     3     3     4   ar
     4     4     5   ar
     5     5    20    1
     6    20    22    1
     7    22    23   ar
     8    23    24   ar
     9    24    25   ar
    10    25    27    1
    11    27    28    1
    12    27    29    1
    13    25    26   ar
    14     5     6   ar
    15     6     7   ar
    16     7     8    1
    17     8     9    1
    18     9    10    1
    19    10    11    1
    20    11    12    1
    21    12    13    1
    22    13    14    1
    23    14    15   am
    24    15    16    2
    25    11    17    1
    26    17    18    1
    27     7     2   ar
    28    18     8    1
    29    26    22   ar
    30    15    11    1
    31    20    21    1
    32    14    19    1
@<TRIPOS>MOLECULE
*****
 29 32 0 0 0
SMALL
GASTEIGER

@<TRIPOS>ATOM
      1 C         -12.2231   -8.0526   16.0075 C.3     1  UNL1        0.0356
      2 C         -12.1943   -6.8341   16.8819 C.ar    1  UNL1        0.0290
      3 C         -10.9621   -5.9808   16.9389 C.ar    1  UNL1        0.1003
      4 N         -10.9333   -4.7623   17.8134 N.ar    1  UNL1       -0.2123
      5 C         -12.1369   -4.3973   18.6308 C.ar    1  UNL1        0.2219
      6 N         -13.3692   -5.2507   18.5737 N.ar    1  UNL1       -0.1989
      7 C         -13.3979   -6.4690   17.6993 C.ar    1  UNL1        0.1320
      8 N         -14.6302   -7.3224   17.6423 N.pl3   1  UNL1       -0.2934
      9 C         -14.7629   -8.5098   18.5491 C.3     1  UNL1        0.0926
     10 C         -15.9952   -9.3632   18.4920 C.3     1  UNL1        0.0302
     11 C         -17.0948   -9.0290   17.5281 C.3     1  UNL1        0.0737
     12 C         -18.2708   -8.8199   16.6207 C.3     1  UNL1        0.0300
     13 C         -19.2703   -9.9030   16.9002 C.3     1  UNL1        0.0899
     14 N         -18.7120  -10.7815   17.9803 N.am    1  UNL1       -0.3043
     15 C         -17.3675  -10.2414   18.3684 C.2     1  UNL1        0.2217
     16 O         -16.4557  -10.8131   19.4132 O.2     1  UNL1       -0.2751
     17 C         -16.9622   -7.8416   16.6212 C.3     1  UNL1        0.0302
     18 C         -15.7299   -6.9883   16.6783 C.3     1  UNL1        0.0926
     19 H         -19.1509  -11.5735   18.3667 H       1  UNL1        0.1494
     20 N         -12.1082   -3.1789   19.5052 N.pl3   1  UNL1       -0.2800
     21 H         -11.3738   -3.0519   20.1485 H       1  UNL1        0.1552
     22 C         -13.1983   -2.1540   19.3995 C.ar    1  UNL1        0.0908
     23 C         -13.1359   -0.8783   18.6128 C.ar    1  UNL1        0.1365
     24 N         -14.4413   -0.1607   18.7891 N.ar    1  UNL1       -0.1619
     25 N         -15.3105   -0.9928   19.6846 N.ar    1  UNL1       -0.1900
     26 C         -14.5423   -2.2247   20.0619 C.ar    1  UNL1        0.1168
     27 C         -16.7033   -0.6528   20.1256 C.3     1  UNL1        0.4298
     28 F         -17.8440   -1.5616   19.7747 F       1  UNL1       -0.1711
     29 F         -16.9555    0.5960   20.9173 F       1  UNL1       -0.1711
@<TRIPOS>BOND
     1     1     2    1
     2     2     3   ar
     3     3     4   ar
     4     4     5   ar
     5     5    20    1
     6    20    22    1
     7    22    23   ar
     8    23    24   ar
     9    24    25   ar
    10    25    27    1
    11    27    28    1
    12    27    29    1
    13    25    26   ar
    14     5     6   ar
    15     6     7   ar
    16     7     8    1
    17     8     9    1
    18     9    10    1
    19    10    11    1
    20    11    12    1
    21    12    13    1
    22    13    14    1
    23    14    15   am
    24    15    16    2
    25    11    17    1
    26    17    18    1
    27     7     2   ar
    28    18     8    1
    29    26    22   ar
    30    15    11    1
    31    20    21    1
    32    14    19    1
@<TRIPOS>MOLECULE
*****
 29 32 0 0 0
SMALL
GASTEIGER

@<TRIPOS>ATOM
      1 C           2.5719    3.5088   21.0862 C.3     1  UNL1        0.0356
      2 C           1.0858    3.3283   20.9906 C.ar    1  UNL1        0.0290
      3 C           0.1674    4.4435   21.3940 C.ar    1  UNL1        0.1003
      4 N          -1.3187    4.2630   21.2985 N.ar    1  UNL1       -0.2123
      5 C          -1.8863    2.9673   20.7996 C.ar    1  UNL1        0.2219
      6 N          -0.9678    1.8520   20.3962 N.ar    1  UNL1       -0.1989
      7 C           0.5182    2.0326   20.4917 C.ar    1  UNL1        0.1320
      8 N           1.4367    0.9173   20.0884 N.pl3   1  UNL1       -0.2934
      9 C           1.9835    0.8636   18.6926 C.3     1  UNL1        0.0926
     10 C           2.9019   -0.2516   18.2893 C.3     1  UNL1        0.0302
     11 C           3.2737   -1.3131   19.2818 C.3     1  UNL1        0.0737
     12 C           3.7318   -2.4394   20.1602 C.3     1  UNL1        0.0300
     13 C           4.6366   -3.3202   19.3505 C.3     1  UNL1        0.0899
     14 N           4.7376   -2.7383   17.9716 N.am    1  UNL1       -0.3043
     15 C           3.8953   -1.4979   17.9291 C.2     1  UNL1        0.2217
     16 O           3.7076   -0.5998   16.7425 O.2     1  UNL1       -0.2751
     17 C           2.7270   -1.2594   20.6775 C.3     1  UNL1        0.0302
     18 C           1.8085   -0.1442   21.0808 C.3     1  UNL1        0.0926
     19 H           5.2643   -3.1060   17.2255 H       1  UNL1        0.1494
     20 N          -3.3723    2.7867   20.7040 N.pl3   1  UNL1       -0.2800
     21 H          -3.7598    2.2855   19.9505 H       1  UNL1        0.1552
     22 C          -4.2679    3.3699   21.7565 C.ar    1  UNL1        0.0908
     23 C          -5.5616    4.0892   21.5137 C.ar    1  UNL1        0.1365
     24 N          -6.1203    4.5000   22.8438 N.ar    1  UNL1       -0.1619
     25 N          -5.1719    4.0347   23.9086 N.ar    1  UNL1       -0.1900
     26 C          -4.0270    3.3363   23.2367 C.ar    1  UNL1        0.1168
     27 C          -5.3389    4.2330   25.3861 C.3     1  UNL1        0.4298
     28 F          -6.4408    5.1083   25.9055 F       1  UNL1       -0.1711
     29 F          -4.4041    3.5560   26.3440 F       1  UNL1       -0.1711
@<TRIPOS>BOND
     1     1     2    1
     2     2     3   ar
     3     3     4   ar
     4     4     5   ar
     5     5    20    1
     6    20    22    1
     7    22    23   ar
     8    23    24   ar
     9    24    25   ar
    10    25    27    1
    11    27    28    1
    12    27    29    1
    13    25    26   ar
    14     5     6   ar
    15     6     7   ar
    16     7     8    1
    17     8     9    1
    18     9    10    1
    19    10    11    1
    20    11    12    1
    21    12    13    1
    22    13    14    1
    23    14    15   am
    24    15    16    2
    25    11    17    1
    26    17    18    1
    27     7     2   ar
    28    18     8    1
    29    26    22   ar
    30    15    11    1
    31    20    21    1
    32    14    19    1
@<TRIPOS>MOLECULE
*****
 29 32 0 0 0
SMALL
GASTEIGER

@<TRIPOS>ATOM
      1 C          -9.6303   -4.3408   18.9715 C.3     1  UNL1        0.0356
      2 C         -10.5504   -5.3094   18.2893 C.ar    1  UNL1        0.0290
      3 C         -10.2620   -6.7805   18.3400 C.ar    1  UNL1        0.1003
      4 N         -11.1821   -7.7491   17.6578 N.ar    1  UNL1       -0.2123
      5 C         -12.3906   -7.2465   16.9250 C.ar    1  UNL1        0.2219
      6 N         -12.6789   -5.7753   16.8744 N.ar    1  UNL1       -0.1989
      7 C         -11.7589   -4.8068   17.5565 C.ar    1  UNL1        0.1320
      8 N         -12.0472   -3.3356   17.5059 N.pl3   1  UNL1       -0.2934
      9 C         -13.1676   -2.7624   18.3221 C.3     1  UNL1        0.0926
     10 C         -13.4559   -1.2913   18.2715 C.3     1  UNL1        0.0302
     11 C         -12.6238   -0.3934   17.4046 C.3     1  UNL1        0.0737
     12 C         -11.8814    0.6231   16.5887 C.3     1  UNL1        0.0300
     13 C         -12.5040    1.9644   16.8409 C.3     1  UNL1        0.0899
     14 N         -13.6312    1.7768   17.8126 N.am    1  UNL1       -0.3043
     15 C         -13.7053    0.3198   18.1610 C.2     1  UNL1        0.2217
     16 O         -14.6882   -0.3132   19.1008 O.2     1  UNL1       -0.2751
     17 C         -11.5035   -0.9665   16.5884 C.3     1  UNL1        0.0302
     18 C         -11.2152   -2.4377   16.6391 C.3     1  UNL1        0.0926
     19 H         -14.2192    2.4857   18.1606 H       1  UNL1        0.1494
     20 N         -13.3107   -8.2150   16.2428 N.pl3   1  UNL1       -0.2800
     21 H         -13.0224   -8.6712   15.4194 H       1  UNL1        0.1552
     22 C         -14.6699   -8.4885   16.8152 C.ar    1  UNL1        0.0908
     23 C         -15.9350   -7.7605   16.4694 C.ar    1  UNL1        0.1365
     24 N         -17.0497   -8.3600   17.2744 N.ar    1  UNL1       -0.1619
     25 N         -16.4736   -9.4586   18.1177 N.ar    1  UNL1       -0.1900
     26 C         -15.0028   -9.5380   17.8339 C.ar    1  UNL1        0.1168
     27 C         -17.2345  -10.3256   19.0765 C.3     1  UNL1        0.4298
     28 F         -18.2012   -9.7067   20.0423 F       1  UNL1       -0.1711
     29 F         -17.0289  -11.8114   19.0695 F       1  UNL1       -0.1711
@<TRIPOS>BOND
     1     1     2    1
     2     2     3   ar
     3     3     4   ar
     4     4     5   ar
     5     5    20    1
     6    20    22    1
     7    22    23   ar
     8    23    24   ar
     9    24    25   ar
    10    25    27    1
    11    27    28    1
    12    27    29    1
    13    25    26   ar
    14     5     6   ar
    15     6     7   ar
    16     7     8    1
    17     8     9    1
    18     9    10    1
    19    10    11    1
    20    11    12    1
    21    12    13    1
    22    13    14    1
    23    14    15   am
    24    15    16    2
    25    11    17    1
    26    17    18    1
    27     7     2   ar
    28    18     8    1
    29    26    22   ar
    30    15    11    1
    31    20    21    1
    32    14    19    1
@<TRIPOS>MOLECULE
*****
 29 32 0 0 0
SMALL
GASTEIGER

@<TRIPOS>ATOM
      1 C           2.8290    2.5798   21.7777 C.3     1  UNL1        0.0356
      2 C           1.8809    3.0954   20.7358 C.ar    1  UNL1        0.0290
      3 C           1.1985    4.4168   20.9310 C.ar    1  UNL1        0.1003
      4 N           0.2505    4.9324   19.8891 N.ar    1  UNL1       -0.2123
      5 C          -0.0151    4.1266   18.6521 C.ar    1  UNL1        0.2219
      6 N           0.6674    2.8051   18.4570 N.ar    1  UNL1       -0.1989
      7 C           1.6154    2.2895   19.4988 C.ar    1  UNL1        0.1320
      8 N           2.2979    0.9681   19.3037 N.pl3   1  UNL1       -0.2934
      9 C           3.4412    0.8495   18.3401 C.3     1  UNL1        0.0926
     10 C           4.1237   -0.4719   18.1450 C.3     1  UNL1        0.0302
     11 C           3.6628   -1.6748   18.9136 C.3     1  UNL1        0.0737
     12 C           3.3146   -2.9579   19.6081 C.3     1  UNL1        0.0300
     13 C           4.2499   -4.0213   19.1135 C.3     1  UNL1        0.0899
     14 N           5.1761   -3.3953   18.1133 N.am    1  UNL1       -0.3043
     15 C           4.8133   -1.9451   17.9898 C.2     1  UNL1        0.2217
     16 O           5.4832   -0.9414   17.0990 O.2     1  UNL1       -0.2751
     17 C           2.5194   -1.5562   19.8773 C.3     1  UNL1        0.0302
     18 C           1.8370   -0.2348   20.0724 C.3     1  UNL1        0.0926
     19 H           5.8958   -3.8555   17.6239 H       1  UNL1        0.1494
     20 N          -0.9630    4.6421   17.6103 N.pl3   1  UNL1       -0.2800
     21 H          -0.6459    5.2754   16.9264 H       1  UNL1        0.1552
     22 C          -2.3942    4.1929   17.6104 C.ar    1  UNL1        0.0908
     23 C          -3.1917    3.7892   16.4058 C.ar    1  UNL1        0.1365
     24 N          -4.5695    3.4153   16.8660 N.ar    1  UNL1       -0.1619
     25 N          -4.6236    3.5880   18.3550 N.ar    1  UNL1       -0.1900
     26 C          -3.2792    4.0686   18.8151 C.ar    1  UNL1        0.1168
     27 C          -5.8132    3.3261   19.2304 C.3     1  UNL1        0.4298
     28 F          -7.1104    2.8840   18.6205 F       1  UNL1       -0.1711
     29 F          -5.7057    3.5063   20.7156 F       1  UNL1       -0.1711
@<TRIPOS>BOND
     1     1     2    1
     2     2     3   ar
     3     3     4   ar
     4     4     5   ar
     5     5    20    1
     6    20    22    1
     7    22    23   ar
     8    23    24   ar
     9    24    25   ar
    10    25    27    1
    11    27    28    1
    12    27    29    1
    13    25    26   ar
    14     5     6   ar
    15     6     7   ar
    16     7     8    1
    17     8     9    1
    18     9    10    1
    19    10    11    1
    20    11    12    1
    21    12    13    1
    22    13    14    1
    23    14    15   am
    24    15    16    2
    25    11    17    1
    26    17    18    1
    27     7     2   ar
    28    18     8    1
    29    26    22   ar
    30    15    11    1
    31    20    21    1
    32    14    19    1
@<TRIPOS>MOLECULE
*****
 29 32 0 0 0
SMALL
GASTEIGER

@<TRIPOS>ATOM
      1 C         -11.0881   -2.0821   18.9106 C.3     1  UNL1        0.0356
      2 C         -11.5607   -3.5056   18.9273 C.ar    1  UNL1        0.0290
      3 C         -10.5643   -4.6262   18.9643 C.ar    1  UNL1        0.1003
      4 N         -11.0368   -6.0498   18.9810 N.ar    1  UNL1       -0.2123
      5 C         -12.5058   -6.3527   18.9606 C.ar    1  UNL1        0.2219
      6 N         -13.5022   -5.2320   18.9235 N.ar    1  UNL1       -0.1989
      7 C         -13.0296   -3.8085   18.9069 C.ar    1  UNL1        0.1320
      8 N         -14.0261   -2.6879   18.8698 N.pl3   1  UNL1       -0.2934
      9 C         -14.4067   -2.0657   17.5591 C.3     1  UNL1        0.0926
     10 C         -15.4031   -0.9451   17.5221 C.3     1  UNL1        0.0302
     11 C         -16.0188   -0.4466   18.7958 C.3     1  UNL1        0.0737
     12 C         -16.7143    0.1543   19.9812 C.3     1  UNL1        0.0300
     13 C         -17.6200    1.2422   19.4849 C.3     1  UNL1        0.0899
     14 N         -17.4843    1.3136   17.9927 N.am    1  UNL1       -0.3043
     15 C         -16.4947    0.2699   17.5669 C.2     1  UNL1        0.2217
     16 O         -16.0577   -0.0086   16.1592 O.2     1  UNL1       -0.2751
     17 C         -15.6382   -1.0688   20.1065 C.3     1  UNL1        0.0302
     18 C         -14.6418   -2.1894   20.1435 C.3     1  UNL1        0.0926
     19 H         -17.9610    1.9362   17.3974 H       1  UNL1        0.1494
     20 N         -12.9783   -7.7762   18.9772 N.pl3   1  UNL1       -0.2800
     21 H         -12.3576   -8.4980   19.2280 H       1  UNL1        0.1552
     22 C         -14.3966   -8.1000   18.6118 C.ar    1  UNL1        0.0908
     23 C         -14.8721   -8.5977   17.2790 C.ar    1  UNL1        0.1365
     24 N         -16.3578   -8.7882   17.3585 N.ar    1  UNL1       -0.1619
     25 N         -16.8006   -8.4081   18.7403 N.ar    1  UNL1       -0.1900
     26 C         -15.5885   -7.9828   19.5149 C.ar    1  UNL1        0.1168
     27 C         -18.2083   -8.4467   19.2569 C.3     1  UNL1        0.4298
     28 F         -18.7288   -7.3207   20.1003 F       1  UNL1       -0.1711
     29 F         -19.0955   -9.6112   18.9301 F       1  UNL1       -0.1711
@<TRIPOS>BOND
     1     1     2    1
     2     2     3   ar
     3     3     4   ar
     4     4     5   ar
     5     5    20    1
     6    20    22    1
     7    22    23   ar
     8    23    24   ar
     9    24    25   ar
    10    25    27    1
    11    27    28    1
    12    27    29    1
    13    25    26   ar
    14     5     6   ar
    15     6     7   ar
    16     7     8    1
    17     8     9    1
    18     9    10    1
    19    10    11    1
    20    11    12    1
    21    12    13    1
    22    13    14    1
    23    14    15   am
    24    15    16    2
    25    11    17    1
    26    17    18    1
    27     7     2   ar
    28    18     8    1
    29    26    22   ar
    30    15    11    1
    31    20    21    1
    32    14    19    1
@<TRIPOS>MOLECULE
*****
 29 32 0 0 0
SMALL
GASTEIGER

@<TRIPOS>ATOM
      1 C           7.1024   -4.6879   25.0233 C.3     1  UNL1        0.0356
      2 C           6.4648   -3.5026   25.6858 C.ar    1  UNL1        0.0290
      3 C           6.5366   -3.3478   27.1760 C.ar    1  UNL1        0.1003
      4 N           5.8990   -2.1625   27.8385 N.ar    1  UNL1       -0.2123
      5 C           5.1897   -1.1322   27.0106 C.ar    1  UNL1        0.2219
      6 N           5.1180   -1.2871   25.5203 N.ar    1  UNL1       -0.1989
      7 C           5.7555   -2.4723   24.8580 C.ar    1  UNL1        0.1320
      8 N           5.6838   -2.6272   23.3676 N.pl3   1  UNL1       -0.2934
      9 C           4.7919   -3.6714   22.7642 C.3     1  UNL1        0.0926
     10 C           4.7202   -3.8263   21.2740 C.3     1  UNL1        0.0302
     11 C           5.5404   -2.9370   20.3872 C.3     1  UNL1        0.0737
     12 C           6.2979   -2.1249   19.3789 C.3     1  UNL1        0.0300
     13 C           5.9243   -2.6172   18.0120 C.3     1  UNL1        0.0899
     14 N           4.9358   -3.7335   18.1757 N.am    1  UNL1       -0.3043
     15 C           4.6986   -3.9312   19.6435 C.2     1  UNL1        0.2217
     16 O           3.7807   -4.9450   20.2597 O.2     1  UNL1       -0.2751
     17 C           6.4323   -1.8928   20.9906 C.3     1  UNL1        0.0302
     18 C           6.5040   -1.7379   22.4808 C.3     1  UNL1        0.0926
     19 H           4.5164   -4.2464   17.4475 H       1  UNL1        0.1494
     20 N           4.5522    0.0530   27.6730 N.pl3   1  UNL1       -0.2800
     21 H           4.9555    0.9460   27.5780 H       1  UNL1        0.1552
     22 C           3.3001   -0.1225   28.4803 C.ar    1  UNL1        0.0908
     23 C           3.2322   -0.4749   29.9367 C.ar    1  UNL1        0.1365
     24 N           1.7863   -0.5465   30.3294 N.ar    1  UNL1       -0.1619
     25 N           0.9605   -0.2384   29.1156 N.ar    1  UNL1       -0.1900
     26 C           1.8962    0.0237   27.9728 C.ar    1  UNL1        0.1168
     27 C          -0.5377   -0.1992   29.0552 C.3     1  UNL1        0.4298
     28 F          -1.2999    0.7392   29.9433 F       1  UNL1       -0.1711
     29 F          -1.2738   -1.0983   28.1067 F       1  UNL1       -0.1711
@<TRIPOS>BOND
     1     1     2    1
     2     2     3   ar
     3     3     4   ar
     4     4     5   ar
     5     5    20    1
     6    20    22    1
     7    22    23   ar
     8    23    24   ar
     9    24    25   ar
    10    25    27    1
    11    27    28    1
    12    27    29    1
    13    25    26   ar
    14     5     6   ar
    15     6     7   ar
    16     7     8    1
    17     8     9    1
    18     9    10    1
    19    10    11    1
    20    11    12    1
    21    12    13    1
    22    13    14    1
    23    14    15   am
    24    15    16    2
    25    11    17    1
    26    17    18    1
    27     7     2   ar
    28    18     8    1
    29    26    22   ar
    30    15    11    1
    31    20    21    1
    32    14    19    1
@<TRIPOS>MOLECULE
*****
 29 32 0 0 0
SMALL
GASTEIGER

@<TRIPOS>ATOM
      1 C           7.8575    0.9508   32.7591 C.3     1  UNL1        0.0356
      2 C           7.5189   -0.4775   32.4501 C.ar    1  UNL1        0.0290
      3 C           8.3553   -1.2527   31.4758 C.ar    1  UNL1        0.1003
      4 N           8.0166   -2.6810   31.1669 N.ar    1  UNL1       -0.2123
      5 C           6.8415   -3.3340   31.8322 C.ar    1  UNL1        0.2219
      6 N           6.0050   -2.5586   32.8066 N.ar    1  UNL1       -0.1989
      7 C           6.3437   -1.1304   33.1155 C.ar    1  UNL1        0.1320
      8 N           5.5073   -0.3551   34.0898 N.pl3   1  UNL1       -0.2934
      9 C           4.4333    0.5652   33.5902 C.3     1  UNL1        0.0926
     10 C           3.5969    1.3405   34.5645 C.3     1  UNL1        0.0302
     11 C           3.8345    1.1955   36.0385 C.3     1  UNL1        0.0737
     12 C           3.9554    1.1536   37.5330 C.3     1  UNL1        0.0300
     13 C           2.9259    2.0810   38.1076 C.3     1  UNL1        0.0899
     14 N           2.1687    2.6961   36.9681 N.am    1  UNL1       -0.3043
     15 C           2.7302    2.1488   35.6894 C.2     1  UNL1        0.2217
     16 O           2.2685    2.4941   34.3046 O.2     1  UNL1       -0.2751
     17 C           4.9084    0.2752   36.5381 C.3     1  UNL1        0.0302
     18 C           5.7448   -0.5001   35.5638 C.3     1  UNL1        0.0926
     19 H           1.4324    3.3450   37.0459 H       1  UNL1        0.1494
     20 N           6.5028   -4.7622   31.5233 N.pl3   1  UNL1       -0.2800
     21 H           5.9293   -5.2759   32.1369 H       1  UNL1        0.1552
     22 C           7.0379   -5.4077   30.2796 C.ar    1  UNL1        0.0908
     23 C           8.3021   -6.2084   30.1756 C.ar    1  UNL1        0.1365
     24 N           8.4482   -6.6615   28.7532 N.ar    1  UNL1       -0.1619
     25 N           7.2744   -6.1408   27.9780 N.ar    1  UNL1       -0.1900
     26 C           6.4028   -5.3660   28.9213 C.ar    1  UNL1        0.1168
     27 C           7.0172   -6.3571   26.5161 C.3     1  UNL1        0.4298
     28 F           6.8191   -5.1802   25.6073 F       1  UNL1       -0.1711
     29 F           6.9582   -7.7501   25.9630 F       1  UNL1       -0.1711
@<TRIPOS>BOND
     1     1     2    1
     2     2     3   ar
     3     3     4   ar
     4     4     5   ar
     5     5    20    1
     6    20    22    1
     7    22    23   ar
     8    23    24   ar
     9    24    25   ar
    10    25    27    1
    11    27    28    1
    12    27    29    1
    13    25    26   ar
    14     5     6   ar
    15     6     7   ar
    16     7     8    1
    17     8     9    1
    18     9    10    1
    19    10    11    1
    20    11    12    1
    21    12    13    1
    22    13    14    1
    23    14    15   am
    24    15    16    2
    25    11    17    1
    26    17    18    1
    27     7     2   ar
    28    18     8    1
    29    26    22   ar
    30    15    11    1
    31    20    21    1
    32    14    19    1
