@<TRIPOS>MOLECULE
*****
 56 60 0 0 0
SMALL
GASTEIGER

@<TRIPOS>ATOM
      1 C           6.9586   -1.1252   31.4583 C.ar    1  UNL1        0.0426
      2 C           5.9486   -0.1688   32.0195 C.ar    1  UNL1        0.0083
      3 C           6.0742    0.3089   33.4358 C.ar    1  UNL1        0.0021
      4 C           7.2099   -0.1698   34.2909 C.ar    1  UNL1        0.0172
      5 C           8.2200   -1.1261   33.7296 C.ar    1  UNL1        0.0021
      6 C           8.0943   -1.6039   32.3133 C.ar    1  UNL1        0.0083
      7 C           7.3355    0.3080   35.7072 C.ar    1  UNL1        0.0769
      8 C           8.3351   -0.1759   36.7156 C.ar    1  UNL1        0.1171
      9 N           8.1010    0.5705   37.9954 N.ar    1  UNL1       -0.2279
     10 C           6.9567    1.5158   37.7781 C.ar    1  UNL1        0.1353
     11 N           6.4836    1.3535   36.3639 N.ar    1  UNL1       -0.3394
     12 H           5.7439    1.8466   35.9410 H       1  UNL1        0.1671
     13 C           6.3857    2.4578   38.7962 C.3     1  UNL1        0.1319
     14 C           7.1685    3.2508   39.8004 C.3     1  UNL1        0.0293
     15 C           6.1983    4.0554   40.6136 C.3     1  UNL1        0.0237
     16 C           4.8159    3.7597   40.1120 C.3     1  UNL1        0.0939
     17 N           4.9318    2.7723   38.9888 N.am    1  UNL1       -0.2730
     18 C           3.7935    2.2000   38.1972 C.2     1  UNL1        0.2439
     19 O           4.0646    1.2170   37.0970 O.2     1  UNL1       -0.2731
     20 C           2.3841    2.6105   38.5056 C.3     1  UNL1        0.1512
     21 N           1.8542    3.9167   37.9926 N.am    1  UNL1       -0.2640
     22 C           1.6440    4.1146   36.5207 C.2     1  UNL1        0.4021
     23 O           1.9636    3.0064   35.5617 O.2     1  UNL1       -0.2264
     24 H           1.6444    4.6440   38.6220 H       1  UNL1        0.1532
     25 O           1.1141    5.4208   36.0077 O.3     1  UNL1       -0.4306
     26 C           1.2336    5.7586   34.5511 C.3     1  UNL1        0.2573
     27 C           1.5047    1.7150   39.3269 C.3     1  UNL1        0.0270
     28 C           0.5006    2.3093   40.2695 C.3     1  UNL1        0.0022
     29 C           1.6293    0.2252   39.2056 C.3     1  UNL1        0.0022
     30 C           6.7074   -2.0808   28.6256 C.1     1  UNL1       -0.0091
     31 C           6.8330   -1.6030   30.0419 C.1     1  UNL1       -0.0512
     32 C           6.4562   -3.0362   25.7929 C.1     1  UNL1       -0.0323
     33 C           6.5818   -2.5585   27.2092 C.1     1  UNL1       -0.0077
     34 C           5.5243   -3.8260   22.1088 C.ar    1  UNL1        0.1358
     35 N           6.7502   -4.6722   22.2855 N.ar    1  UNL1       -0.2272
     36 C           7.2484   -4.4793   23.6871 C.ar    1  UNL1        0.1257
     37 C           6.3306   -3.5140   24.3766 C.ar    1  UNL1        0.1204
     38 N           5.2650   -3.1102   23.4012 N.ar    1  UNL1       -0.3331
     39 H           4.5253   -2.4850   23.5781 H       1  UNL1        0.1677
     40 C           5.0292   -1.1069   20.3735 C.2     1  UNL1        0.2439
     41 O           5.8991   -0.9109   21.5797 O.2     1  UNL1       -0.2731
     42 N           4.4746   -2.4652   20.0615 N.am    1  UNL1       -0.2730
     43 C           3.5950   -2.8122   18.8970 C.3     1  UNL1        0.0939
     44 C           3.2790   -4.2765   18.9750 C.3     1  UNL1        0.0237
     45 C           3.9633   -4.8345   20.1876 C.3     1  UNL1        0.0293
     46 C           4.7021   -3.7151   20.8591 C.3     1  UNL1        0.1319
     47 C           4.7138    0.0555   19.4793 C.3     1  UNL1        0.1512
     48 C           5.9290    0.0321   17.1831 C.2     1  UNL1        0.4021
     49 O           5.0394   -1.0849   16.7238 O.2     1  UNL1       -0.2264
     50 N           5.7662    0.6023   18.5609 N.am    1  UNL1       -0.2640
     51 H           6.3500    1.3355   18.8624 H       1  UNL1        0.1532
     52 C           7.8694    1.6975   16.7231 C.3     1  UNL1        0.2573
     53 O           6.9813    0.5789   16.2646 O.3     1  UNL1       -0.4306
     54 C           3.3461    0.6709   19.5036 C.3     1  UNL1        0.0270
     55 C           2.4299    0.5091   18.3270 C.3     1  UNL1        0.0022
     56 C           2.8945    1.4481   20.7045 C.3     1  UNL1        0.0022
@<TRIPOS>BOND
     1    52    53    1
     2    53    48    1
     3    48    49    2
     4    48    50   am
     5    47    50    1
     6    47    40    1
     7    40    41    2
     8    40    42   am
     9    42    43    1
    10    43    44    1
    11    44    45    1
    12    45    46    1
    13    46    34    1
    14    34    35   ar
    15    35    36   ar
    16    36    37   ar
    17    37    32    1
    18    32    33    3
    19    33    30    1
    20    30    31    3
    21    31     1    1
    22     1     2   ar
    23     2     3   ar
    24     3     4   ar
    25     4     7    1
    26     7     8   ar
    27     8     9   ar
    28     9    10   ar
    29    13    10    1
    30    13    14    1
    31    14    15    1
    32    15    16    1
    33    16    17    1
    34    17    18   am
    35    18    19    2
    36    18    20    1
    37    20    21    1
    38    21    22   am
    39    22    23    2
    40    22    25    1
    41    25    26    1
    42    20    27    1
    43    27    28    1
    44    27    29    1
    45    10    11   ar
    46     4     5   ar
    47     5     6   ar
    48    37    38   ar
    49    47    54    1
    50    54    55    1
    51    54    56    1
    52    46    42    1
    53    38    34   ar
    54     6     1   ar
    55    11     7   ar
    56    17    13    1
    57    50    51    1
    58    21    24    1
    59    11    12    1
    60    38    39    1
@<TRIPOS>MOLECULE
*****
 56 60 0 0 0
SMALL
GASTEIGER

@<TRIPOS>ATOM
      1 C           6.9934   -1.1798   31.4424 C.ar    1  UNL1        0.0426
      2 C           8.2907   -1.3266   32.1811 C.ar    1  UNL1        0.0083
      3 C           8.4061   -0.8452   33.5970 C.ar    1  UNL1        0.0021
      4 C           7.2242   -0.2170   34.2743 C.ar    1  UNL1        0.0172
      5 C           5.9270   -0.0702   33.5356 C.ar    1  UNL1        0.0021
      6 C           5.8116   -0.5516   32.1197 C.ar    1  UNL1        0.0083
      7 C           7.3397    0.2645   35.6903 C.ar    1  UNL1        0.0769
      8 C           8.3465   -0.2006   36.7003 C.ar    1  UNL1        0.1171
      9 N           8.0977    0.5429   37.9791 N.ar    1  UNL1       -0.2279
     10 C           6.9371    1.4675   37.7593 C.ar    1  UNL1        0.1353
     11 N           6.4687    1.2954   36.3448 N.ar    1  UNL1       -0.3394
     12 H           5.7208    1.7749   35.9205 H       1  UNL1        0.1671
     13 C           6.3484    2.4004   38.7758 C.3     1  UNL1        0.1319
     14 C           7.1066    3.1373   39.8398 C.3     1  UNL1        0.0293
     15 C           6.1249    3.9525   40.6282 C.3     1  UNL1        0.0237
     16 C           4.7599    3.7195   40.0514 C.3     1  UNL1        0.0939
     17 N           4.8981    2.7603   38.9066 N.am    1  UNL1       -0.2730
     18 C           3.7819    2.2505   38.0440 C.2     1  UNL1        0.2439
     19 O           4.0740    1.2895   36.9298 O.2     1  UNL1       -0.2731
     20 C           2.3736    2.7015   38.2954 C.3     1  UNL1        0.1512
     21 N           1.9003    4.0186   37.7557 N.am    1  UNL1       -0.2640
     22 C           1.6672    4.1858   36.2834 C.2     1  UNL1        0.4021
     23 O           1.9073    3.0358   35.3507 O.2     1  UNL1       -0.2264
     24 H           1.7428    4.7734   38.3678 H       1  UNL1        0.1532
     25 O           1.1940    5.5029   35.7437 O.3     1  UNL1       -0.4306
     26 C           0.4429    6.4508   36.6310 C.3     1  UNL1        0.2573
     27 C           1.4385    1.8355   39.0863 C.3     1  UNL1        0.0270
     28 C           1.7696    0.3911   39.3185 C.3     1  UNL1        0.0022
     29 C           0.1725    2.4139   39.6452 C.3     1  UNL1        0.0022
     30 C           6.7625   -2.1426   28.6105 C.1     1  UNL1       -0.0091
     31 C           6.8780   -1.6612   30.0264 C.1     1  UNL1       -0.0512
     32 C           6.5316   -3.1055   25.7786 C.1     1  UNL1       -0.0323
     33 C           6.6471   -2.6241   27.1945 C.1     1  UNL1       -0.0077
     34 C           5.6176   -3.9167   22.0946 C.ar    1  UNL1        0.1358
     35 N           6.8595   -4.7389   22.2730 N.ar    1  UNL1       -0.2272
     36 C           7.3530   -4.5351   23.6747 C.ar    1  UNL1        0.1257
     37 C           6.4162   -3.5869   24.3627 C.ar    1  UNL1        0.1204
     38 N           5.3437   -3.2047   23.3861 N.ar    1  UNL1       -0.3331
     39 H           4.5920   -2.5938   23.5620 H       1  UNL1        0.1677
     40 C           5.1435   -1.2277   20.3074 C.2     1  UNL1        0.2439
     41 O           6.0172   -1.0160   21.5082 O.2     1  UNL1       -0.2731
     42 N           4.5765   -2.5868   20.0228 N.am    1  UNL1       -0.2730
     43 C           3.6918   -2.9487   18.8667 C.3     1  UNL1        0.0939
     44 C           3.3631   -4.4084   18.9737 C.3     1  UNL1        0.0237
     45 C           4.0445   -4.9486   20.1959 C.3     1  UNL1        0.0293
     46 C           4.7944   -3.8229   20.8443 C.3     1  UNL1        0.1319
     47 C           4.8369   -0.0802   19.3912 C.3     1  UNL1        0.1512
     48 C           2.5683    0.4552   18.2439 C.2     1  UNL1        0.4021
     49 O           3.0050   -0.3037   17.0261 O.2     1  UNL1       -0.2264
     50 N           3.4843    0.5670   19.4265 N.am    1  UNL1       -0.2640
     51 H           3.1976    1.0651   20.2259 H       1  UNL1        0.1532
     52 C           0.5579    1.3946   19.5954 C.3     1  UNL1        0.2573
     53 O           1.2156    1.1024   18.2792 O.3     1  UNL1       -0.4306
     54 C           5.8831    0.4199   18.4396 C.3     1  UNL1        0.0270
     55 C           6.1165    1.8939   18.2887 C.3     1  UNL1        0.0022
     56 C           6.6958   -0.5541   17.6390 C.3     1  UNL1        0.0022
@<TRIPOS>BOND
     1    52    53    1
     2    53    48    1
     3    48    49    2
     4    48    50   am
     5    47    50    1
     6    47    40    1
     7    40    41    2
     8    40    42   am
     9    42    43    1
    10    43    44    1
    11    44    45    1
    12    45    46    1
    13    46    34    1
    14    34    35   ar
    15    35    36   ar
    16    36    37   ar
    17    37    32    1
    18    32    33    3
    19    33    30    1
    20    30    31    3
    21    31     1    1
    22     1     2   ar
    23     2     3   ar
    24     3     4   ar
    25     4     7    1
    26     7     8   ar
    27     8     9   ar
    28     9    10   ar
    29    13    10    1
    30    13    14    1
    31    14    15    1
    32    15    16    1
    33    16    17    1
    34    17    18   am
    35    18    19    2
    36    18    20    1
    37    20    21    1
    38    21    22   am
    39    22    23    2
    40    22    25    1
    41    25    26    1
    42    20    27    1
    43    27    28    1
    44    27    29    1
    45    10    11   ar
    46     4     5   ar
    47     5     6   ar
    48    37    38   ar
    49    47    54    1
    50    54    55    1
    51    54    56    1
    52    46    42    1
    53    38    34   ar
    54     6     1   ar
    55    11     7   ar
    56    17    13    1
    57    50    51    1
    58    21    24    1
    59    11    12    1
    60    38    39    1
@<TRIPOS>MOLECULE
*****
 56 60 0 0 0
SMALL
GASTEIGER

@<TRIPOS>ATOM
      1 C          -0.8086    4.7901   27.3428 C.ar    1  UNL1        0.0426
      2 C          -0.8912    3.3729   26.8582 C.ar    1  UNL1        0.0083
      3 C          -1.3662    3.0831   25.4653 C.ar    1  UNL1        0.0021
      4 C          -1.7585    4.2105   24.5569 C.ar    1  UNL1        0.0172
      5 C          -1.6759    5.6276   25.0415 C.ar    1  UNL1        0.0021
      6 C          -1.2009    5.9174   26.4344 C.ar    1  UNL1        0.0083
      7 C          -2.2335    3.9206   23.1639 C.ar    1  UNL1        0.0769
      8 C          -3.5525    3.3114   22.7910 C.ar    1  UNL1        0.1171
      9 N          -3.6071    3.2033   21.2959 N.ar    1  UNL1       -0.2279
     10 C          -2.3218    3.7458   20.7448 C.ar    1  UNL1        0.1353
     11 N          -1.4729    4.1892   21.8992 N.ar    1  UNL1       -0.3394
     12 H          -0.5743    4.5866   21.8377 H       1  UNL1        0.1671
     13 C          -1.9506    3.8302   19.2938 C.3     1  UNL1        0.1319
     14 C          -2.8482    4.2785   18.1788 C.3     1  UNL1        0.0293
     15 C          -2.0690    4.2065   16.8991 C.3     1  UNL1        0.0237
     16 C          -0.6898    3.7136   17.2232 C.3     1  UNL1        0.0939
     17 N          -0.6167    3.4811   18.7033 N.am    1  UNL1       -0.2730
     18 C           0.5802    2.9863   19.4599 C.2     1  UNL1        0.2439
     19 O           0.5039    2.8013   20.9465 O.2     1  UNL1       -0.2731
     20 C           1.8535    2.6765   18.7300 C.3     1  UNL1        0.1512
     21 N           2.1467    1.2706   18.2971 N.am    1  UNL1       -0.2640
     22 C           2.9091    0.3502   19.2036 C.2     1  UNL1        0.4021
     23 O           3.3783    0.8358   20.5430 O.2     1  UNL1       -0.2264
     24 H           1.8387    0.9518   17.4180 H       1  UNL1        0.1532
     25 O           3.2023   -1.0557   18.7707 O.3     1  UNL1       -0.4306
     26 C           4.0327   -1.3059   17.5469 C.3     1  UNL1        0.2573
     27 C           2.8336    3.7725   18.4331 C.3     1  UNL1        0.0270
     28 C           4.2222    3.4338   17.9781 C.3     1  UNL1        0.0022
     29 C           2.4251    5.2070   18.5912 C.3     1  UNL1        0.0022
     30 C           0.1414    5.3697   30.1288 C.1     1  UNL1       -0.0091
     31 C          -0.3336    5.0799   28.7358 C.1     1  UNL1       -0.0512
     32 C           1.0914    5.9495   32.9148 C.1     1  UNL1       -0.0323
     33 C           0.6164    5.6596   31.5218 C.1     1  UNL1       -0.0077
     34 C           2.6893    6.0461   36.4506 C.ar    1  UNL1        0.1358
     35 N           1.9052    7.3248   36.4518 N.ar    1  UNL1       -0.2272
     36 C           1.2112    7.4442   35.1274 C.ar    1  UNL1        0.1257
     37 C           1.5663    6.2393   34.3077 C.ar    1  UNL1        0.1204
     38 N           2.4799    5.3752   35.1255 N.ar    1  UNL1       -0.3331
     39 H           2.8730    4.5182   34.8422 H       1  UNL1        0.1677
     40 C           2.5300    3.0581   37.7531 C.2     1  UNL1        0.2439
     41 O           1.5568    3.2891   36.6352 O.2     1  UNL1       -0.2731
     42 N           3.4612    4.1555   38.1755 N.am    1  UNL1       -0.2730
     43 C           4.4827    4.0723   39.2708 C.3     1  UNL1        0.0939
     44 C           5.1873    5.3943   39.3489 C.3     1  UNL1        0.0237
     45 C           4.6012    6.2945   38.3020 C.3     1  UNL1        0.0293
     46 C           3.5345    5.5290   37.5768 C.3     1  UNL1        0.1319
     47 C           2.5720    1.7297   38.4486 C.3     1  UNL1        0.1512
     48 C           4.3572    0.4990   37.0176 C.2     1  UNL1        0.4021
     49 O           3.6840    0.9781   35.7657 O.2     1  UNL1       -0.2264
     50 N           3.8012    0.8748   38.3591 N.am    1  UNL1       -0.2640
     51 H           4.2431    0.5603   39.1807 H       1  UNL1        0.1532
     52 C           6.7765    0.1207   36.1490 C.3     1  UNL1        0.2573
     53 O           5.5865   -0.3559   36.9279 O.3     1  UNL1       -0.4306
     54 C           1.3847    1.2564   39.2336 C.3     1  UNL1        0.0270
     55 C           0.3031    2.2235   39.6141 C.3     1  UNL1        0.0022
     56 C           1.2790   -0.1842   39.6382 C.3     1  UNL1        0.0022
@<TRIPOS>BOND
     1    52    53    1
     2    53    48    1
     3    48    49    2
     4    48    50   am
     5    47    50    1
     6    47    40    1
     7    40    41    2
     8    40    42   am
     9    42    43    1
    10    43    44    1
    11    44    45    1
    12    45    46    1
    13    46    34    1
    14    34    35   ar
    15    35    36   ar
    16    36    37   ar
    17    37    32    1
    18    32    33    3
    19    33    30    1
    20    30    31    3
    21    31     1    1
    22     1     2   ar
    23     2     3   ar
    24     3     4   ar
    25     4     7    1
    26     7     8   ar
    27     8     9   ar
    28     9    10   ar
    29    13    10    1
    30    13    14    1
    31    14    15    1
    32    15    16    1
    33    16    17    1
    34    17    18   am
    35    18    19    2
    36    18    20    1
    37    20    21    1
    38    21    22   am
    39    22    23    2
    40    22    25    1
    41    25    26    1
    42    20    27    1
    43    27    28    1
    44    27    29    1
    45    10    11   ar
    46     4     5   ar
    47     5     6   ar
    48    37    38   ar
    49    47    54    1
    50    54    55    1
    51    54    56    1
    52    46    42    1
    53    38    34   ar
    54     6     1   ar
    55    11     7   ar
    56    17    13    1
    57    50    51    1
    58    21    24    1
    59    11    12    1
    60    38    39    1
@<TRIPOS>MOLECULE
*****
 56 60 0 0 0
SMALL
GASTEIGER

@<TRIPOS>ATOM
      1 C          -0.8506    2.5897   27.0880 C.ar    1  UNL1        0.0426
      2 C          -2.1938    3.2000   27.3588 C.ar    1  UNL1        0.0083
      3 C          -3.0640    3.6345   26.2170 C.ar    1  UNL1        0.0021
      4 C          -2.5912    3.4586   24.8044 C.ar    1  UNL1        0.0172
      5 C          -1.2480    2.8483   24.5336 C.ar    1  UNL1        0.0021
      6 C          -0.3777    2.4138   25.6754 C.ar    1  UNL1        0.0083
      7 C          -3.4615    3.8931   23.6625 C.ar    1  UNL1        0.0769
      8 C          -4.5909    4.8772   23.7397 C.ar    1  UNL1        0.1171
      9 N          -5.1827    5.0121   22.3680 N.ar    1  UNL1       -0.2279
     10 C          -4.4190    4.1114   21.4430 C.ar    1  UNL1        0.1353
     11 N          -3.3553    3.4198   22.2431 N.ar    1  UNL1       -0.3394
     12 H          -2.7020    2.7694   21.8974 H       1  UNL1        0.1671
     13 C          -4.6742    3.9334   19.9756 C.3     1  UNL1        0.1319
     14 C          -6.0122    3.7152   19.3336 C.3     1  UNL1        0.0293
     15 C          -5.8012    3.5894   17.8538 C.3     1  UNL1        0.0237
     16 C          -4.3328    3.7299   17.5814 C.3     1  UNL1        0.0939
     17 N          -3.6364    3.9425   18.8927 N.am    1  UNL1       -0.2730
     18 C          -2.1611    4.1312   19.0871 C.2     1  UNL1        0.2439
     19 O          -1.6061    4.3344   20.4657 O.2     1  UNL1       -0.2731
     20 C          -1.2406    4.1166   17.9028 C.3     1  UNL1        0.1512
     21 N          -0.5884    2.8351   17.4757 N.am    1  UNL1       -0.2640
     22 C           0.5358    2.2595   18.2851 C.2     1  UNL1        0.4021
     23 O           1.0077    2.9655   19.5215 O.2     1  UNL1       -0.2264
     24 H          -0.8981    2.3717   16.6641 H       1  UNL1        0.1532
     25 O           1.1880    0.9780   17.8580 O.3     1  UNL1       -0.4306
     26 C           2.4627    0.5315   18.5103 C.3     1  UNL1        0.2573
     27 C          -0.9723    5.3833   17.1456 C.3     1  UNL1        0.0270
     28 C          -1.8901    6.5593   17.3022 C.3     1  UNL1        0.0022
     29 C           0.2137    5.4741   16.2319 C.3     1  UNL1        0.0022
     30 C           0.8901    1.7206   29.3716 C.1     1  UNL1       -0.0091
     31 C           0.0198    2.1552   28.2299 C.1     1  UNL1       -0.0512
     32 C           2.6308    0.8517   31.6552 C.1     1  UNL1       -0.0323
     33 C           1.7605    1.2861   30.5135 C.1     1  UNL1       -0.0077
     34 C           4.7683    0.4263   34.8670 C.ar    1  UNL1        0.1358
     35 N           4.9127   -0.9292   34.2410 N.ar    1  UNL1       -0.2272
     36 C           4.1296   -0.9348   32.9617 C.ar    1  UNL1        0.1257
     37 C           3.5012    0.4172   32.7970 C.ar    1  UNL1        0.1204
     38 N           3.8959    1.2584   33.9745 N.ar    1  UNL1       -0.3331
     39 H           3.6292    2.1926   34.1337 H       1  UNL1        0.1677
     40 C           3.1782    1.6896   37.4215 C.2     1  UNL1        0.2439
     41 O           2.2911    1.3361   36.2647 O.2     1  UNL1       -0.2731
     42 N           4.6566    1.4522   37.3328 N.am    1  UNL1       -0.2730
     43 C           5.6638    1.7537   38.4027 C.3     1  UNL1        0.0939
     44 C           7.0171    1.3594   37.8898 C.3     1  UNL1        0.0237
     45 C           6.8464    0.8142   36.5028 C.3     1  UNL1        0.0293
     46 C           5.3876    0.8715   36.1586 C.3     1  UNL1        0.1319
     47 C           2.5869    2.2805   38.6670 C.3     1  UNL1        0.1512
     48 C           3.2966    4.7742   38.5013 C.2     1  UNL1        0.4021
     49 O           2.7695    4.8310   37.0982 O.2     1  UNL1       -0.2264
     50 N           3.2053    3.4989   39.2858 N.am    1  UNL1       -0.2640
     51 H           3.5513    3.4616   40.2067 H       1  UNL1        0.1532
     52 C           3.5408    7.3579   38.6239 C.3     1  UNL1        0.2573
     53 O           3.9150    5.9926   39.1200 O.3     1  UNL1       -0.4306
     54 C           1.3772    1.6529   39.2936 C.3     1  UNL1        0.0270
     55 C           1.3709    0.1862   39.6080 C.3     1  UNL1        0.0022
     56 C           0.1736    2.4920   39.6058 C.3     1  UNL1        0.0022
@<TRIPOS>BOND
     1    52    53    1
     2    53    48    1
     3    48    49    2
     4    48    50   am
     5    47    50    1
     6    47    40    1
     7    40    41    2
     8    40    42   am
     9    42    43    1
    10    43    44    1
    11    44    45    1
    12    45    46    1
    13    46    34    1
    14    34    35   ar
    15    35    36   ar
    16    36    37   ar
    17    37    32    1
    18    32    33    3
    19    33    30    1
    20    30    31    3
    21    31     1    1
    22     1     2   ar
    23     2     3   ar
    24     3     4   ar
    25     4     7    1
    26     7     8   ar
    27     8     9   ar
    28     9    10   ar
    29    13    10    1
    30    13    14    1
    31    14    15    1
    32    15    16    1
    33    16    17    1
    34    17    18   am
    35    18    19    2
    36    18    20    1
    37    20    21    1
    38    21    22   am
    39    22    23    2
    40    22    25    1
    41    25    26    1
    42    20    27    1
    43    27    28    1
    44    27    29    1
    45    10    11   ar
    46     4     5   ar
    47     5     6   ar
    48    37    38   ar
    49    47    54    1
    50    54    55    1
    51    54    56    1
    52    46    42    1
    53    38    34   ar
    54     6     1   ar
    55    11     7   ar
    56    17    13    1
    57    50    51    1
    58    21    24    1
    59    11    12    1
    60    38    39    1
@<TRIPOS>MOLECULE
*****
 56 60 0 0 0
SMALL
GASTEIGER

@<TRIPOS>ATOM
      1 C          -0.7231    2.3458   27.0424 C.ar    1  UNL1        0.0426
      2 C          -1.9797    3.0995   27.3631 C.ar    1  UNL1        0.0083
      3 C          -2.8658    3.5860   26.2549 C.ar    1  UNL1        0.0021
      4 C          -2.4954    3.3187   24.8262 C.ar    1  UNL1        0.0172
      5 C          -1.2388    2.5651   24.5055 C.ar    1  UNL1        0.0021
      6 C          -0.3526    2.0786   25.6137 C.ar    1  UNL1        0.0083
      7 C          -3.3816    3.8052   23.7180 C.ar    1  UNL1        0.0769
      8 C          -4.4477    4.8537   23.8374 C.ar    1  UNL1        0.1171
      9 N          -5.0823    5.0252   22.4892 N.ar    1  UNL1       -0.2279
     10 C          -4.4085    4.0826   21.5365 C.ar    1  UNL1        0.1353
     11 N          -3.3574    3.3287   22.2959 N.ar    1  UNL1       -0.3394
     12 H          -2.7571    2.6416   21.9260 H       1  UNL1        0.1671
     13 C          -4.7294    3.9222   20.0800 C.3     1  UNL1        0.1319
     14 C          -6.0914    3.6839   19.4983 C.3     1  UNL1        0.0293
     15 C          -5.9484    3.5863   18.0083 C.3     1  UNL1        0.0237
     16 C          -4.4981    3.7643   17.6692 C.3     1  UNL1        0.0939
     17 N          -3.7448    3.9718   18.9495 N.am    1  UNL1       -0.2730
     18 C          -2.2664    4.1907   19.0770 C.2     1  UNL1        0.2439
     19 O          -1.6509    4.3846   20.4311 O.2     1  UNL1       -0.2731
     20 C          -1.4033    4.2156   17.8504 C.3     1  UNL1        0.1512
     21 N          -0.5883    3.0113   17.4823 N.am    1  UNL1       -0.2640
     22 C           0.6739    2.7023   18.2315 C.2     1  UNL1        0.4021
     23 O           1.1212    3.5976   19.3487 O.2     1  UNL1       -0.2264
     24 H          -0.8819    2.4236   16.7490 H       1  UNL1        0.1532
     25 O           1.4889    1.4979   17.8634 O.3     1  UNL1       -0.4306
     26 C           1.3613    0.2338   18.6606 C.3     1  UNL1        0.2573
     27 C          -1.3551    5.4447   16.9920 C.3     1  UNL1        0.0270
     28 C          -0.2291    5.6368   16.0198 C.3     1  UNL1        0.0022
     29 C          -2.4328    6.4817   17.1058 C.3     1  UNL1        0.0022
     30 C           1.0494    1.3729   29.2587 C.1     1  UNL1       -0.0091
     31 C           0.1632    1.8593   28.1506 C.1     1  UNL1       -0.0512
     32 C           2.8218    0.3999   31.4750 C.1     1  UNL1       -0.0323
     33 C           1.9356    0.8864   30.3669 C.1     1  UNL1       -0.0077
     34 C           5.2266   -0.1258   34.4760 C.ar    1  UNL1        0.1358
     35 N           4.9169   -1.5448   34.1006 N.ar    1  UNL1       -0.2272
     36 C           3.9784   -1.5205   32.9307 C.ar    1  UNL1        0.1257
     37 C           3.7080   -0.0866   32.5831 C.ar    1  UNL1        0.1204
     38 N           4.4794    0.7753   33.5382 N.ar    1  UNL1       -0.3331
     39 H           4.4929    1.7597   33.5477 H       1  UNL1        0.1677
     40 C           4.4801    2.0434   36.7970 C.2     1  UNL1        0.2439
     41 O           3.3769    1.8023   35.8097 O.2     1  UNL1       -0.2731
     42 N           5.7823    1.3116   36.6600 N.am    1  UNL1       -0.2730
     43 C           6.9701    1.4485   37.5658 C.3     1  UNL1        0.0939
     44 C           8.0473    0.5359   37.0587 C.3     1  UNL1        0.0237
     45 C           7.5253   -0.1649   35.8396 C.3     1  UNL1        0.0293
     46 C           6.1255    0.3145   35.5932 C.3     1  UNL1        0.1319
     47 C           4.2812    3.0162   37.9214 C.3     1  UNL1        0.1512
     48 C           1.9948    2.7034   39.1147 C.2     1  UNL1        0.4021
     49 O           1.2870    3.1975   37.8881 O.2     1  UNL1       -0.2264
     50 N           3.4919    2.6127   39.1314 N.am    1  UNL1       -0.2640
     51 H           3.9565    2.2884   39.9366 H       1  UNL1        0.1532
     52 C           0.5367    0.9580   40.3709 C.3     1  UNL1        0.2573
     53 O           1.2054    2.2999   40.3247 O.3     1  UNL1       -0.4306
     54 C           4.8716    4.3924   37.8356 C.3     1  UNL1        0.0270
     55 C           5.4341    4.8876   36.5362 C.3     1  UNL1        0.0022
     56 C           4.8995    5.2736   39.0493 C.3     1  UNL1        0.0022
@<TRIPOS>BOND
     1    52    53    1
     2    53    48    1
     3    48    49    2
     4    48    50   am
     5    47    50    1
     6    47    40    1
     7    40    41    2
     8    40    42   am
     9    42    43    1
    10    43    44    1
    11    44    45    1
    12    45    46    1
    13    46    34    1
    14    34    35   ar
    15    35    36   ar
    16    36    37   ar
    17    37    32    1
    18    32    33    3
    19    33    30    1
    20    30    31    3
    21    31     1    1
    22     1     2   ar
    23     2     3   ar
    24     3     4   ar
    25     4     7    1
    26     7     8   ar
    27     8     9   ar
    28     9    10   ar
    29    13    10    1
    30    13    14    1
    31    14    15    1
    32    15    16    1
    33    16    17    1
    34    17    18   am
    35    18    19    2
    36    18    20    1
    37    20    21    1
    38    21    22   am
    39    22    23    2
    40    22    25    1
    41    25    26    1
    42    20    27    1
    43    27    28    1
    44    27    29    1
    45    10    11   ar
    46     4     5   ar
    47     5     6   ar
    48    37    38   ar
    49    47    54    1
    50    54    55    1
    51    54    56    1
    52    46    42    1
    53    38    34   ar
    54     6     1   ar
    55    11     7   ar
    56    17    13    1
    57    50    51    1
    58    21    24    1
    59    11    12    1
    60    38    39    1
@<TRIPOS>MOLECULE
*****
 56 60 0 0 0
SMALL
GASTEIGER

@<TRIPOS>ATOM
      1 C           7.6223   -1.4139   31.2924 C.ar    1  UNL1        0.0426
      2 C           6.7522   -0.3417   31.8784 C.ar    1  UNL1        0.0083
      3 C           6.9572    0.0981   33.2977 C.ar    1  UNL1        0.0021
      4 C           8.0322   -0.5344   34.1311 C.ar    1  UNL1        0.0172
      5 C           8.9022   -1.6066   33.5451 C.ar    1  UNL1        0.0021
      6 C           8.6972   -2.0463   32.1257 C.ar    1  UNL1        0.0083
      7 C           8.2371   -0.0946   35.5505 C.ar    1  UNL1        0.0769
      8 C           8.8514   -0.9131   36.6472 C.ar    1  UNL1        0.1171
      9 N           8.8577   -0.0836   37.8969 N.ar    1  UNL1       -0.2279
     10 C           8.2473    1.2478   37.5725 C.ar    1  UNL1        0.1353
     11 N           7.8638    1.2409   36.1224 N.ar    1  UNL1       -0.3394
     12 H           7.4413    1.9827   35.6320 H       1  UNL1        0.1671
     13 C           8.0544    2.3861   38.5301 C.3     1  UNL1        0.1319
     14 C           9.1182    3.0099   39.3840 C.3     1  UNL1        0.0293
     15 C           8.4851    4.1097   40.1836 C.3     1  UNL1        0.0237
     16 C           7.0299    4.1657   39.8240 C.3     1  UNL1        0.0939
     17 N           6.7638    3.1004   38.8021 N.am    1  UNL1       -0.2730
     18 C           5.4395    2.8019   38.1641 C.2     1  UNL1        0.2439
     19 O           5.3256    1.7001   37.1526 O.2     1  UNL1       -0.2731
     20 C           4.2289    3.6050   38.5375 C.3     1  UNL1        0.1512
     21 N           3.0757    2.9442   39.2327 N.am    1  UNL1       -0.2640
     22 C           1.9791    2.3101   38.4293 C.2     1  UNL1        0.4021
     23 O           2.0359    2.3369   36.9306 O.2     1  UNL1       -0.2264
     24 H           3.0385    2.9266   40.2164 H       1  UNL1        0.1532
     25 O           0.8259    1.6492   39.1245 O.3     1  UNL1       -0.4306
     26 C           0.9238    0.2105   39.5374 C.3     1  UNL1        0.2573
     27 C           4.1715    5.0690   38.2158 C.3     1  UNL1        0.0270
     28 C           4.3751    5.5353   36.8047 C.3     1  UNL1        0.0022
     29 C           3.9106    6.0666   39.3050 C.3     1  UNL1        0.0022
     30 C           7.2124   -2.2934   28.4536 C.1     1  UNL1       -0.0091
     31 C           7.4173   -1.8537   29.8730 C.1     1  UNL1       -0.0512
     32 C           6.8026   -3.1730   25.6149 C.1     1  UNL1       -0.0323
     33 C           7.0075   -2.7332   27.0342 C.1     1  UNL1       -0.0077
     34 C           5.6335   -3.9142   21.9887 C.ar    1  UNL1        0.1358
     35 N           6.9312   -4.6652   22.0341 N.ar    1  UNL1       -0.2272
     36 C           7.5271   -4.4790   23.3981 C.ar    1  UNL1        0.1257
     37 C           6.5977   -3.6129   24.1956 C.ar    1  UNL1        0.1204
     38 N           5.4274   -3.2638   23.3245 N.ar    1  UNL1       -0.3331
     39 H           4.6590   -2.7058   23.5841 H       1  UNL1        0.1677
     40 C           4.8478   -1.1983   20.3588 C.2     1  UNL1        0.2439
     41 O           5.8034   -0.9742   21.4931 O.2     1  UNL1       -0.2731
     42 N           4.3439   -2.5801   20.0646 N.am    1  UNL1       -0.2730
     43 C           3.3903   -2.9563   18.9694 C.3     1  UNL1        0.0939
     44 C           3.1622   -4.4371   19.0419 C.3     1  UNL1        0.0237
     45 C           3.9748   -4.9762   20.1817 C.3     1  UNL1        0.0293
     46 C           4.7050   -3.8285   20.8137 C.3     1  UNL1        0.1319
     47 C           4.3960   -0.0406   19.5188 C.3     1  UNL1        0.1512
     48 C           2.9371    1.5923   20.9170 C.2     1  UNL1        0.4021
     49 O           4.1246    1.9206   21.7726 O.2     1  UNL1       -0.2264
     50 N           3.0728    0.6117   19.7901 N.am    1  UNL1       -0.2640
     51 H           2.2934    0.3962   19.2285 H       1  UNL1        0.1532
     52 C           0.5348    1.4842   21.9008 C.3     1  UNL1        0.2573
     53 O           1.6139    2.2446   21.1884 O.3     1  UNL1       -0.4306
     54 C           5.2675    0.4648   18.4075 C.3     1  UNL1        0.0270
     55 C           5.9714   -0.5056   17.5059 C.3     1  UNL1        0.0022
     56 C           5.4351    1.9407   18.1977 C.3     1  UNL1        0.0022
@<TRIPOS>BOND
     1    52    53    1
     2    53    48    1
     3    48    49    2
     4    48    50   am
     5    47    50    1
     6    47    40    1
     7    40    41    2
     8    40    42   am
     9    42    43    1
    10    43    44    1
    11    44    45    1
    12    45    46    1
    13    46    34    1
    14    34    35   ar
    15    35    36   ar
    16    36    37   ar
    17    37    32    1
    18    32    33    3
    19    33    30    1
    20    30    31    3
    21    31     1    1
    22     1     2   ar
    23     2     3   ar
    24     3     4   ar
    25     4     7    1
    26     7     8   ar
    27     8     9   ar
    28     9    10   ar
    29    13    10    1
    30    13    14    1
    31    14    15    1
    32    15    16    1
    33    16    17    1
    34    17    18   am
    35    18    19    2
    36    18    20    1
    37    20    21    1
    38    21    22   am
    39    22    23    2
    40    22    25    1
    41    25    26    1
    42    20    27    1
    43    27    28    1
    44    27    29    1
    45    10    11   ar
    46     4     5   ar
    47     5     6   ar
    48    37    38   ar
    49    47    54    1
    50    54    55    1
    51    54    56    1
    52    46    42    1
    53    38    34   ar
    54     6     1   ar
    55    11     7   ar
    56    17    13    1
    57    50    51    1
    58    21    24    1
    59    11    12    1
    60    38    39    1
@<TRIPOS>MOLECULE
*****
 56 60 0 0 0
SMALL
GASTEIGER

@<TRIPOS>ATOM
      1 C          -3.9484    3.8918   25.0749 C.ar    1  UNL1        0.0426
      2 C          -3.1427    3.6803   23.8275 C.ar    1  UNL1        0.0083
      3 C          -1.7235    3.2043   23.9231 C.ar    1  UNL1        0.0021
      4 C          -1.1100    2.9398   25.2661 C.ar    1  UNL1        0.0172
      5 C          -1.9157    3.1513   26.5135 C.ar    1  UNL1        0.0021
      6 C          -3.3349    3.6273   26.4179 C.ar    1  UNL1        0.0083
      7 C           0.3093    2.4638   25.3616 C.ar    1  UNL1        0.0769
      8 C           1.4685    3.2494   25.8994 C.ar    1  UNL1        0.1171
      9 N           2.6942    2.3898   25.8063 N.ar    1  UNL1       -0.2279
     10 C           2.2925    1.0728   25.2111 C.ar    1  UNL1        0.1353
     11 N           0.8187    1.1186   24.9362 N.ar    1  UNL1       -0.3394
     12 H           0.2801    0.3930   24.5453 H       1  UNL1        0.1671
     13 C           3.2047   -0.0864   24.9385 C.3     1  UNL1        0.1319
     14 C           3.8225   -0.9836   25.9696 C.3     1  UNL1        0.0293
     15 C           4.6588   -2.0036   25.2553 C.3     1  UNL1        0.0237
     16 C           4.5579   -1.7367   23.7827 C.3     1  UNL1        0.0939
     17 N           3.6592   -0.5518   23.5869 N.am    1  UNL1       -0.2730
     18 C           3.2813    0.0601   22.2706 C.2     1  UNL1        0.2439
     19 O           2.3681    1.2495   22.2311 O.2     1  UNL1       -0.2731
     20 C           3.8166   -0.5171   20.9938 C.3     1  UNL1        0.1512
     21 N           5.2002   -0.1650   20.5337 N.am    1  UNL1       -0.2640
     22 C           5.3908    0.7842   19.3880 C.2     1  UNL1        0.4021
     23 O           4.1977    1.3814   18.7024 O.2     1  UNL1       -0.2264
     24 H           5.9832   -0.5570   20.9836 H       1  UNL1        0.1532
     25 O           6.7744    1.1363   18.9279 O.3     1  UNL1       -0.4306
     26 C           7.1800    0.8805   17.5066 C.3     1  UNL1        0.2573
     27 C           2.9684   -1.4464   20.1771 C.3     1  UNL1        0.0270
     28 C           3.5077   -2.7824   19.7598 C.3     1  UNL1        0.0022
     29 C           1.5810   -1.0397   19.7779 C.3     1  UNL1        0.0022
     30 C          -6.7869    4.8438   24.8839 C.1     1  UNL1       -0.0091
     31 C          -5.3677    4.3678   24.9794 C.1     1  UNL1       -0.0512
     32 C          -9.6255    5.7959   24.6928 C.1     1  UNL1       -0.0323
     33 C          -8.2062    5.3199   24.7883 C.1     1  UNL1       -0.0077
     34 C         -13.4705    6.2981   24.5238 C.ar    1  UNL1        0.1358
     35 N         -12.9869    7.7105   24.3769 N.ar    1  UNL1       -0.2272
     36 C         -11.4877    7.6942   24.4223 C.ar    1  UNL1        0.1257
     37 C         -11.0447    6.2718   24.5973 C.ar    1  UNL1        0.1204
     38 N         -12.2701    5.4090   24.6600 N.ar    1  UNL1       -0.3331
     39 H         -12.2841    4.4309   24.7711 H       1  UNL1        0.1677
     40 C         -15.1342    5.1358   21.9682 C.2     1  UNL1        0.2439
     41 O         -13.7132    5.5010   21.6561 O.2     1  UNL1       -0.2731
     42 N         -15.6676    5.3188   23.3581 N.am    1  UNL1       -0.2730
     43 C         -17.0595    4.9997   23.8174 C.3     1  UNL1        0.0939
     44 C         -17.1549    5.3368   25.2760 C.3     1  UNL1        0.0237
     45 C         -15.8221    5.8642   25.7181 C.3     1  UNL1        0.0293
     46 C         -14.9029    5.8531   24.5328 C.3     1  UNL1        0.1319
     47 C         -16.0218    4.5875   20.8904 C.3     1  UNL1        0.1512
     48 C         -15.2102    2.6674   19.3398 C.2     1  UNL1        0.4021
     49 O         -14.4996    3.6661   18.4752 O.2     1  UNL1       -0.2264
     50 N         -15.9713    3.1281   20.5475 N.am    1  UNL1       -0.2640
     51 H         -16.4378    2.4727   21.1150 H       1  UNL1        0.1532
     52 C         -13.8928    0.6057   18.4657 C.3     1  UNL1        0.2573
     53 O         -15.1597    1.2080   18.9968 O.3     1  UNL1       -0.4306
     54 C         -16.9597    5.4987   20.1556 C.3     1  UNL1        0.0270
     55 C         -16.4232    6.6849   19.4105 C.3     1  UNL1        0.0022
     56 C         -18.4344    5.2237   20.1658 C.3     1  UNL1        0.0022
@<TRIPOS>BOND
     1    52    53    1
     2    53    48    1
     3    48    49    2
     4    48    50   am
     5    47    50    1
     6    47    40    1
     7    40    41    2
     8    40    42   am
     9    42    43    1
    10    43    44    1
    11    44    45    1
    12    45    46    1
    13    46    34    1
    14    34    35   ar
    15    35    36   ar
    16    36    37   ar
    17    37    32    1
    18    32    33    3
    19    33    30    1
    20    30    31    3
    21    31     1    1
    22     1     2   ar
    23     2     3   ar
    24     3     4   ar
    25     4     7    1
    26     7     8   ar
    27     8     9   ar
    28     9    10   ar
    29    13    10    1
    30    13    14    1
    31    14    15    1
    32    15    16    1
    33    16    17    1
    34    17    18   am
    35    18    19    2
    36    18    20    1
    37    20    21    1
    38    21    22   am
    39    22    23    2
    40    22    25    1
    41    25    26    1
    42    20    27    1
    43    27    28    1
    44    27    29    1
    45    10    11   ar
    46     4     5   ar
    47     5     6   ar
    48    37    38   ar
    49    47    54    1
    50    54    55    1
    51    54    56    1
    52    46    42    1
    53    38    34   ar
    54     6     1   ar
    55    11     7   ar
    56    17    13    1
    57    50    51    1
    58    21    24    1
    59    11    12    1
    60    38    39    1
@<TRIPOS>MOLECULE
*****
 56 60 0 0 0
SMALL
GASTEIGER

@<TRIPOS>ATOM
      1 C           6.1401   -0.7114   30.5435 C.ar    1  UNL1        0.0426
      2 C           5.4199    0.4105   31.2309 C.ar    1  UNL1        0.0083
      3 C           5.6924    0.7021   32.6768 C.ar    1  UNL1        0.0021
      4 C           6.6850   -0.1282   33.4353 C.ar    1  UNL1        0.0172
      5 C           7.4052   -1.2501   32.7478 C.ar    1  UNL1        0.0021
      6 C           7.1327   -1.5417   31.3019 C.ar    1  UNL1        0.0083
      7 C           6.9575    0.1634   34.8813 C.ar    1  UNL1        0.0769
      8 C           7.9625   -0.5362   35.7476 C.ar    1  UNL1        0.1171
      9 N           7.8989    0.0738   37.1165 N.ar    1  UNL1       -0.2279
     10 C           6.8547    1.1505   37.0961 C.ar    1  UNL1        0.1353
     11 N           6.2728    1.2058   35.7147 N.ar    1  UNL1       -0.3394
     12 H           5.5658    1.8187   35.4087 H       1  UNL1        0.1671
     13 C           6.4613    2.0193   38.2539 C.3     1  UNL1        0.1319
     14 C           7.3958    2.6277   39.2572 C.3     1  UNL1        0.0293
     15 C           6.5764    3.4166   40.2350 C.3     1  UNL1        0.0237
     16 C           5.1355    3.2957   39.8362 C.3     1  UNL1        0.0939
     17 N           5.0644    2.4321   38.6118 N.am    1  UNL1       -0.2730
     18 C           3.8155    2.0487   37.8747 C.2     1  UNL1        0.2439
     19 O           3.9007    1.1738   36.6593 O.2     1  UNL1       -0.2731
     20 C           2.4814    2.5401   38.3530 C.3     1  UNL1        0.1512
     21 N           2.0331    3.9330   38.0230 N.am    1  UNL1       -0.2640
     22 C           1.6657    4.2884   36.6128 C.2     1  UNL1        0.4021
     23 O           1.7466    3.2509   35.5326 O.2     1  UNL1       -0.2264
     24 H           1.9799    4.6140   38.7321 H       1  UNL1        0.1532
     25 O           1.2173    5.6813   36.2829 O.3     1  UNL1       -0.4306
     26 C           0.6648    5.9889   34.9227 C.3     1  UNL1        0.2573
     27 C           1.5958    1.6388   39.1611 C.3     1  UNL1        0.0270
     28 C           1.7449    0.1499   39.0561 C.3     1  UNL1        0.0022
     29 C           0.5610    2.2263   40.0743 C.3     1  UNL1        0.0022
     30 C           5.5951   -1.2946   27.6516 C.1     1  UNL1       -0.0091
     31 C           5.8676   -1.0030   29.0975 C.1     1  UNL1       -0.0512
     32 C           5.0502   -1.8780   24.7597 C.1     1  UNL1       -0.0323
     33 C           5.3227   -1.5863   26.2056 C.1     1  UNL1       -0.0077
     34 C           4.3732   -1.8839   20.9378 C.ar    1  UNL1        0.1358
     35 N           4.3440   -3.3530   21.2397 N.ar    1  UNL1       -0.2272
     36 C           4.5941   -3.5295   22.7081 C.ar    1  UNL1        0.1257
     37 C           4.7778   -2.1696   23.3138 C.ar    1  UNL1        0.1204
     38 N           4.6413   -1.1526   22.2197 N.ar    1  UNL1       -0.3331
     39 H           4.7148   -0.1765   22.3245 H       1  UNL1        0.1677
     40 C           2.4574    0.6756   20.2833 C.2     1  UNL1        0.2439
     41 O           2.4606    0.2693   21.7272 O.2     1  UNL1       -0.2731
     42 N           3.2893   -0.0799   19.2898 N.am    1  UNL1       -0.2730
     43 C           3.3867    0.2083   17.8210 C.3     1  UNL1        0.0939
     44 C           4.3276   -0.7900   17.2141 C.3     1  UNL1        0.0237
     45 C           4.8116   -1.6953   18.3078 C.3     1  UNL1        0.0293
     46 C           4.1699   -1.2565   19.5906 C.3     1  UNL1        0.1319
     47 C           1.6223    1.8373   19.8328 C.3     1  UNL1        0.1512
     48 C          -0.7205    2.5827   20.6728 C.2     1  UNL1        0.4021
     49 O          -0.0745    3.5722   21.5965 O.2     1  UNL1       -0.2264
     50 N           0.1279    1.7152   19.7909 N.am    1  UNL1       -0.2640
     51 H          -0.2961    1.0657   19.1846 H       1  UNL1        0.1532
     52 C          -3.0732    3.6650   20.8814 C.3     1  UNL1        0.2573
     53 O          -2.2149    2.4606   20.6309 O.3     1  UNL1       -0.4306
     54 C           2.2816    3.1212   19.4243 C.3     1  UNL1        0.0270
     55 C           1.8145    3.8470   18.1975 C.3     1  UNL1        0.0022
     56 C           3.4083    3.6793   20.2425 C.3     1  UNL1        0.0022
@<TRIPOS>BOND
     1    52    53    1
     2    53    48    1
     3    48    49    2
     4    48    50   am
     5    47    50    1
     6    47    40    1
     7    40    41    2
     8    40    42   am
     9    42    43    1
    10    43    44    1
    11    44    45    1
    12    45    46    1
    13    46    34    1
    14    34    35   ar
    15    35    36   ar
    16    36    37   ar
    17    37    32    1
    18    32    33    3
    19    33    30    1
    20    30    31    3
    21    31     1    1
    22     1     2   ar
    23     2     3   ar
    24     3     4   ar
    25     4     7    1
    26     7     8   ar
    27     8     9   ar
    28     9    10   ar
    29    13    10    1
    30    13    14    1
    31    14    15    1
    32    15    16    1
    33    16    17    1
    34    17    18   am
    35    18    19    2
    36    18    20    1
    37    20    21    1
    38    21    22   am
    39    22    23    2
    40    22    25    1
    41    25    26    1
    42    20    27    1
    43    27    28    1
    44    27    29    1
    45    10    11   ar
    46     4     5   ar
    47     5     6   ar
    48    37    38   ar
    49    47    54    1
    50    54    55    1
    51    54    56    1
    52    46    42    1
    53    38    34   ar
    54     6     1   ar
    55    11     7   ar
    56    17    13    1
    57    50    51    1
    58    21    24    1
    59    11    12    1
    60    38    39    1
@<TRIPOS>MOLECULE
*****
 56 60 0 0 0
SMALL
GASTEIGER

@<TRIPOS>ATOM
      1 C          -0.1242    2.8382   27.6507 C.ar    1  UNL1        0.0426
      2 C          -0.6117    4.2565   27.6233 C.ar    1  UNL1        0.0083
      3 C          -1.4475    4.7401   26.4755 C.ar    1  UNL1        0.0021
      4 C          -1.7958    3.8056   25.3552 C.ar    1  UNL1        0.0172
      5 C          -1.3084    2.3873   25.3825 C.ar    1  UNL1        0.0021
      6 C          -0.4725    1.9036   26.5303 C.ar    1  UNL1        0.0083
      7 C          -2.6317    4.2893   24.2073 C.ar    1  UNL1        0.0769
      8 C          -3.5176    5.4998   24.2104 C.ar    1  UNL1        0.1171
      9 N          -4.1618    5.6062   22.8600 N.ar    1  UNL1       -0.2279
     10 C          -3.6741    4.4614   22.0223 C.ar    1  UNL1        0.1353
     11 N          -2.7284    3.6476   22.8550 N.ar    1  UNL1       -0.3394
     12 H          -2.2544    2.8349   22.5649 H       1  UNL1        0.1671
     13 C          -4.0636    4.1799   20.6014 C.3     1  UNL1        0.1319
     14 C          -5.4614    3.9907   20.0913 C.3     1  UNL1        0.0293
     15 C          -5.3854    3.7321   18.6157 C.3     1  UNL1        0.0237
     16 C          -3.9405    3.7614   18.2138 C.3     1  UNL1        0.0939
     17 N          -3.1237    4.0382   19.4410 N.am    1  UNL1       -0.2730
     18 C          -1.6292    4.1531   19.4979 C.2     1  UNL1        0.2439
     19 O          -0.9477    4.4345   20.8042 O.2     1  UNL1       -0.2731
     20 C          -0.8160    3.9866   18.2485 C.3     1  UNL1        0.1512
     21 N          -0.3372    2.6246   17.8413 N.am    1  UNL1       -0.2640
     22 C           0.8882    2.0390   18.4781 C.2     1  UNL1        0.4021
     23 O           1.6347    2.8154   19.5221 O.2     1  UNL1       -0.2264
     24 H          -0.8271    2.1150   17.1561 H       1  UNL1        0.1532
     25 O           1.3670    0.6770   18.0710 O.3     1  UNL1       -0.4306
     26 C           2.6084    0.1032   18.6872 C.3     1  UNL1        0.2573
     27 C          -0.4816    5.1819   17.4063 C.3     1  UNL1        0.0270
     28 C          -1.5635    5.8899   16.6459 C.3     1  UNL1        0.0022
     29 C           0.9346    5.6692   17.3244 C.3     1  UNL1        0.0022
     30 C           1.5474    1.8706   29.9462 C.1     1  UNL1       -0.0091
     31 C           0.7116    2.3544   28.7985 C.1     1  UNL1       -0.0512
     32 C           3.2191    0.9031   32.2418 C.1     1  UNL1       -0.0323
     33 C           2.3833    1.3869   31.0940 C.1     1  UNL1       -0.0077
     34 C           5.6445    0.3575   35.2225 C.ar    1  UNL1        0.1358
     35 N           5.0377   -1.0078   35.0889 N.ar    1  UNL1       -0.2272
     36 C           4.0553   -0.9696   33.9560 C.ar    1  UNL1        0.1257
     37 C           4.0549    0.4193   33.3895 C.ar    1  UNL1        0.1204
     38 N           5.0371    1.2395   34.1722 N.ar    1  UNL1       -0.3331
     39 H           5.2464    2.1898   34.0228 H       1  UNL1        0.1677
     40 C           5.2563    2.5982   37.5630 C.2     1  UNL1        0.2439
     41 O           4.0441    2.3987   36.7023 O.2     1  UNL1       -0.2731
     42 N           6.4989    1.7985   37.3054 N.am    1  UNL1       -0.2730
     43 C           7.7813    1.8884   38.0784 C.3     1  UNL1        0.0939
     44 C           8.7522    0.9139   37.4802 C.3     1  UNL1        0.0237
     45 C           8.0700    0.2218   36.3376 C.3     1  UNL1        0.0293
     46 C           6.6774    0.7685   36.2296 C.3     1  UNL1        0.1319
     47 C           5.2259    3.5974   38.6814 C.3     1  UNL1        0.1512
     48 C           6.3317    3.5057   41.0306 C.2     1  UNL1        0.4021
     49 O           7.4645    4.3522   40.5303 O.2     1  UNL1       -0.2264
     50 N           5.2123    3.1283   40.1061 N.am    1  UNL1       -0.2640
     51 H           4.4688    2.5728   40.4344 H       1  UNL1        0.1532
     52 C           7.5878    3.0280   43.2541 C.3     1  UNL1        0.2573
     53 O           6.3182    3.0367   42.4553 O.3     1  UNL1       -0.4306
     54 C           5.2091    5.0657   38.3750 C.3     1  UNL1        0.0270
     55 C           6.1206    5.6226   37.3219 C.3     1  UNL1        0.0022
     56 C           4.2806    5.9771   39.1217 C.3     1  UNL1        0.0022
@<TRIPOS>BOND
     1    52    53    1
     2    53    48    1
     3    48    49    2
     4    48    50   am
     5    47    50    1
     6    47    40    1
     7    40    41    2
     8    40    42   am
     9    42    43    1
    10    43    44    1
    11    44    45    1
    12    45    46    1
    13    46    34    1
    14    34    35   ar
    15    35    36   ar
    16    36    37   ar
    17    37    32    1
    18    32    33    3
    19    33    30    1
    20    30    31    3
    21    31     1    1
    22     1     2   ar
    23     2     3   ar
    24     3     4   ar
    25     4     7    1
    26     7     8   ar
    27     8     9   ar
    28     9    10   ar
    29    13    10    1
    30    13    14    1
    31    14    15    1
    32    15    16    1
    33    16    17    1
    34    17    18   am
    35    18    19    2
    36    18    20    1
    37    20    21    1
    38    21    22   am
    39    22    23    2
    40    22    25    1
    41    25    26    1
    42    20    27    1
    43    27    28    1
    44    27    29    1
    45    10    11   ar
    46     4     5   ar
    47     5     6   ar
    48    37    38   ar
    49    47    54    1
    50    54    55    1
    51    54    56    1
    52    46    42    1
    53    38    34   ar
    54     6     1   ar
    55    11     7   ar
    56    17    13    1
    57    50    51    1
    58    21    24    1
    59    11    12    1
    60    38    39    1
