@<TRIPOS>MOLECULE
*****
 38 42 0 0 0
SMALL
GASTEIGER

@<TRIPOS>ATOM
      1 C           6.6383   -4.0239   24.2402 C.3     1  UNL1        0.1565
      2 O           5.9313   -3.6484   25.5087 O.3     1  UNL1       -0.3781
      3 C           7.6406   -4.6526   23.3182 C.3     1  UNL1        0.0372
      4 C           7.5471   -4.4217   21.8389 C.3     1  UNL1        0.0186
      5 C           6.4514   -3.5621   21.2818 C.3     1  UNL1        0.0544
      6 C           5.4491   -2.9334   22.2038 C.3     1  UNL1        0.0186
      7 C           5.5426   -3.1643   23.6830 C.3     1  UNL1        0.0372
      8 H           6.3813   -4.0593   26.2634 H       1  UNL1        0.2109
      9 N           6.8849   -5.8246   26.0966 N.am    1  UNL1       -0.2819
     10 C           7.4885   -4.7531   25.2379 C.2     1  UNL1        0.2502
     11 O           8.9423   -4.4107   25.3768 O.2     1  UNL1       -0.2723
     12 H           5.9307   -6.0493   26.0054 H       1  UNL1        0.1549
     13 C           7.0354   -4.4282   30.3718 C.ar    1  UNL1        0.1411
     14 C           7.8856   -5.1574   31.3695 C.ar    1  UNL1        0.0681
     15 C           8.6856   -6.3521   30.9422 C.ar    1  UNL1        0.1607
     16 F           9.5358   -7.0813   31.9399 F       1  UNL1       -0.2025
     17 C           8.6355   -6.8176   29.5170 C.ar    1  UNL1        0.1100
     18 N           9.4355   -8.0123   29.0897 N.ar    1  UNL1       -0.2415
     19 C           9.3853   -8.4777   27.6647 C.ar    1  UNL1        0.1002
     20 C           8.5351   -7.7485   26.6670 C.ar    1  UNL1        0.0353
     21 C           7.7351   -6.5538   27.0943 C.ar    1  UNL1        0.0535
     22 C           7.7853   -6.0884   28.5193 C.ar    1  UNL1        0.0364
     23 C           6.9852   -4.8937   28.9467 C.ar    1  UNL1        0.0398
     24 C           5.9051   -3.0314   32.2484 C.3     1  UNL1        0.2525
     25 O           6.2353   -3.2335   30.7992 O.3     1  UNL1       -0.4714
     26 N           6.3579   -3.3312   19.8026 N.3     1  UNL1       -0.2935
     27 H           6.9966   -3.9923   19.3604 H       1  UNL1        0.1236
     28 C           5.0381   -3.4708   19.1037 C.3     1  UNL1        0.1152
     29 C           4.1739   -2.2643   18.8852 C.ar    1  UNL1        0.0782
     30 C           3.0749   -1.9436   19.8543 C.ar    1  UNL1        0.0562
     31 C           2.2106   -0.7371   19.6358 C.ar    1  UNL1        0.1752
     32 C           2.4456    0.1484   18.4482 C.ar    1  UNL1        0.1914
     33 C           3.5446   -0.1723   17.4790 C.ar    1  UNL1        0.1384
     34 N           4.4088   -1.3787   17.6975 N.ar    1  UNL1       -0.2434
     35 O           1.5813    1.3549   18.2297 O.3     1  UNL1       -0.4668
     36 C           0.4823    1.6756   19.1988 C.3     1  UNL1        0.2527
     37 C           0.2474    0.7900   20.3865 C.3     1  UNL1        0.2526
     38 O           1.1116   -0.4164   20.6050 O.3     1  UNL1       -0.4683
@<TRIPOS>BOND
     1    24    25    1
     2    25    13    1
     3    13    14   ar
     4    14    15   ar
     5    15    16    1
     6    15    17   ar
     7    17    18   ar
     8    18    19   ar
     9    19    20   ar
    10    20    21   ar
    11    21     9    1
    12     9    10   am
    13    10    11    2
    14    10     1    1
    15     1     2    1
    16     1     3    1
    17     3     4    1
    18     4     5    1
    19     5    26    1
    20    26    28    1
    21    28    29    1
    22    29    30   ar
    23    30    31   ar
    24    31    32   ar
    25    32    33   ar
    26    33    34   ar
    27    32    35    1
    28    35    36    1
    29    36    37    1
    30    37    38    1
    31     5     6    1
    32     6     7    1
    33    21    22   ar
    34    22    23   ar
    35    23    13   ar
    36    22    17   ar
    37     7     1    1
    38    34    29   ar
    39    38    31    1
    40     9    12    1
    41     2     8    1
    42    26    27    1
@<TRIPOS>MOLECULE
*****
 38 42 0 0 0
SMALL
GASTEIGER

@<TRIPOS>ATOM
      1 C           7.0899   -4.2312   30.9146 C.3     1  UNL1        0.1565
      2 O           7.6307   -5.3583   31.7437 O.3     1  UNL1       -0.3781
      3 C           6.8099   -3.3683   29.7201 C.3     1  UNL1        0.0372
      4 C           5.9668   -2.1363   29.8659 C.3     1  UNL1        0.0186
      5 C           5.4037   -1.7671   31.2063 C.3     1  UNL1        0.0544
      6 C           5.6838   -2.6300   32.4009 C.3     1  UNL1        0.0186
      7 C           6.5269   -3.8621   32.2550 C.3     1  UNL1        0.0372
      8 H           8.1540   -5.9509   31.1816 H       1  UNL1        0.2109
      9 N           7.1466   -6.0592   29.0694 N.am    1  UNL1       -0.2819
     10 C           7.8408   -4.9918   29.8622 C.2     1  UNL1        0.2502
     11 O           9.2860   -4.6848   29.6025 O.2     1  UNL1       -0.2723
     12 H           6.1981   -6.2607   29.2398 H       1  UNL1        0.1549
     13 C           6.9501   -4.7423   24.7709 C.ar    1  UNL1        0.1411
     14 C           7.7009   -5.5028   23.7184 C.ar    1  UNL1        0.0681
     15 C           8.5173   -6.7023   24.0987 C.ar    1  UNL1        0.1607
     16 F           9.2682   -7.4629   23.0462 F       1  UNL1       -0.2025
     17 C           8.5828   -7.1414   25.5316 C.ar    1  UNL1        0.1100
     18 N           9.3992   -8.3409   25.9119 N.ar    1  UNL1       -0.2415
     19 C           9.4647   -8.7798   27.3447 C.ar    1  UNL1        0.1002
     20 C           8.7138   -8.0193   28.3972 C.ar    1  UNL1        0.0353
     21 C           7.8975   -6.8198   28.0169 C.ar    1  UNL1        0.0535
     22 C           7.8320   -6.3808   26.5841 C.ar    1  UNL1        0.0364
     23 C           7.0156   -5.1812   26.2037 C.ar    1  UNL1        0.0398
     24 C           5.9185   -2.4372   25.3812 C.3     1  UNL1        0.2525
     25 O           6.1337   -3.5427   24.3905 O.3     1  UNL1       -0.4714
     26 N           4.5606   -0.5351   31.3522 N.3     1  UNL1       -0.2935
     27 H           4.8512    0.1094   30.6169 H       1  UNL1        0.1236
     28 C           3.0660   -0.6355   31.2741 C.3     1  UNL1        0.1152
     29 C           2.3430   -0.1335   30.0595 C.ar    1  UNL1        0.0782
     30 C           2.9898   -0.2279   28.7094 C.ar    1  UNL1        0.0562
     31 C           2.2668    0.2741   27.4947 C.ar    1  UNL1        0.1752
     32 C           0.8971    0.8703   27.6302 C.ar    1  UNL1        0.1914
     33 C           0.2503    0.9647   28.9803 C.ar    1  UNL1        0.1384
     34 N           0.9733    0.4627   30.1950 N.ar    1  UNL1       -0.2434
     35 O           0.1741    1.3723   26.4156 O.3     1  UNL1       -0.4668
     36 C           0.8209    1.2780   25.0655 C.3     1  UNL1        0.2527
     37 C           2.1906    0.6817   24.9299 C.3     1  UNL1        0.2526
     38 O           2.9135    0.1798   26.1446 O.3     1  UNL1       -0.4683
@<TRIPOS>BOND
     1    24    25    1
     2    25    13    1
     3    13    14   ar
     4    14    15   ar
     5    15    16    1
     6    15    17   ar
     7    17    18   ar
     8    18    19   ar
     9    19    20   ar
    10    20    21   ar
    11    21     9    1
    12     9    10   am
    13    10    11    2
    14    10     1    1
    15     1     2    1
    16     1     3    1
    17     3     4    1
    18     4     5    1
    19     5    26    1
    20    26    28    1
    21    28    29    1
    22    29    30   ar
    23    30    31   ar
    24    31    32   ar
    25    32    33   ar
    26    33    34   ar
    27    32    35    1
    28    35    36    1
    29    36    37    1
    30    37    38    1
    31     5     6    1
    32     6     7    1
    33    21    22   ar
    34    22    23   ar
    35    23    13   ar
    36    22    17   ar
    37     7     1    1
    38    34    29   ar
    39    38    31    1
    40     9    12    1
    41     2     8    1
    42    26    27    1
@<TRIPOS>MOLECULE
*****
 38 42 0 0 0
SMALL
GASTEIGER

@<TRIPOS>ATOM
      1 C           6.9352   -4.2812   31.0414 C.3     1  UNL1        0.1565
      2 O           7.4300   -5.4945   31.7714 O.3     1  UNL1       -0.3781
      3 C           6.6950   -3.3081   29.9254 C.3     1  UNL1        0.0372
      4 C           5.8938   -2.0646   30.1741 C.3     1  UNL1        0.0186
      5 C           5.3328   -1.7942   31.5387 C.3     1  UNL1        0.0544
      6 C           5.5731   -2.7673   32.6547 C.3     1  UNL1        0.0186
      7 C           6.3743   -4.0108   32.4060 C.3     1  UNL1        0.0372
      8 H           7.9371   -6.0539   31.1624 H       1  UNL1        0.2109
      9 N           6.9515   -5.9652   29.0630 N.am    1  UNL1       -0.2819
     10 C           7.6680   -4.9729   29.9302 C.2     1  UNL1        0.2502
     11 O           9.1172   -4.6724   29.6864 O.2     1  UNL1       -0.2723
     12 H           6.0004   -6.1625   29.2231 H       1  UNL1        0.1549
     13 C           6.6703   -4.3878   24.8580 C.ar    1  UNL1        0.1411
     14 C           7.4031   -5.0795   23.7469 C.ar    1  UNL1        0.0681
     15 C           8.2295   -6.2971   24.0374 C.ar    1  UNL1        0.1607
     16 F           8.9623   -6.9888   22.9263 F       1  UNL1       -0.2025
     17 C           8.3233   -6.8229   25.4392 C.ar    1  UNL1        0.1100
     18 N           9.1498   -8.0405   25.7297 N.ar    1  UNL1       -0.2415
     19 C           9.2435   -8.5662   27.1314 C.ar    1  UNL1        0.1002
     20 C           8.5108   -7.8745   28.2425 C.ar    1  UNL1        0.0353
     21 C           7.6843   -6.6569   27.9519 C.ar    1  UNL1        0.0535
     22 C           7.5906   -6.1312   26.5503 C.ar    1  UNL1        0.0364
     23 C           6.7640   -4.9136   26.2597 C.ar    1  UNL1        0.0398
     24 C           5.0503   -3.0880   23.2970 C.3     1  UNL1        0.2525
     25 O           5.8438   -3.1702   24.5674 O.3     1  UNL1       -0.4714
     26 N           4.5316   -0.5507   31.7875 N.3     1  UNL1       -0.2935
     27 H           3.6692   -0.8431   32.2469 H       1  UNL1        0.1236
     28 C           5.1080    0.5598   32.6148 C.3     1  UNL1        0.1152
     29 C           4.7518    0.6756   34.0673 C.ar    1  UNL1        0.0782
     30 C           3.7064    1.6572   34.5073 C.ar    1  UNL1        0.0562
     31 C           3.3503    1.7729   35.9599 C.ar    1  UNL1        0.1752
     32 C           4.0396    0.9070   36.9723 C.ar    1  UNL1        0.1914
     33 C           5.0850   -0.0746   36.5323 C.ar    1  UNL1        0.1384
     34 N           5.4411   -0.1903   35.0798 N.ar    1  UNL1       -0.2434
     35 O           3.6834    1.0227   38.4248 O.3     1  UNL1       -0.4668
     36 C           2.6380    2.0043   38.8648 C.3     1  UNL1        0.2527
     37 C           1.9487    2.8702   37.8524 C.3     1  UNL1        0.2526
     38 O           2.3049    2.7545   36.3998 O.3     1  UNL1       -0.4683
@<TRIPOS>BOND
     1    24    25    1
     2    25    13    1
     3    13    14   ar
     4    14    15   ar
     5    15    16    1
     6    15    17   ar
     7    17    18   ar
     8    18    19   ar
     9    19    20   ar
    10    20    21   ar
    11    21     9    1
    12     9    10   am
    13    10    11    2
    14    10     1    1
    15     1     2    1
    16     1     3    1
    17     3     4    1
    18     4     5    1
    19     5    26    1
    20    26    28    1
    21    28    29    1
    22    29    30   ar
    23    30    31   ar
    24    31    32   ar
    25    32    33   ar
    26    33    34   ar
    27    32    35    1
    28    35    36    1
    29    36    37    1
    30    37    38    1
    31     5     6    1
    32     6     7    1
    33    21    22   ar
    34    22    23   ar
    35    23    13   ar
    36    22    17   ar
    37     7     1    1
    38    34    29   ar
    39    38    31    1
    40     9    12    1
    41     2     8    1
    42    26    27    1
@<TRIPOS>MOLECULE
*****
 38 42 0 0 0
SMALL
GASTEIGER

@<TRIPOS>ATOM
      1 C           1.8986    1.1152   19.2495 C.3     1  UNL1        0.1565
      2 O           2.7431    1.2716   18.0197 O.3     1  UNL1       -0.3781
      3 C           1.4152    0.5945   20.5706 C.3     1  UNL1        0.0372
      4 C           0.1853    1.1768   21.2017 C.3     1  UNL1        0.0186
      5 C          -0.5612    2.2798   20.5117 C.3     1  UNL1        0.0544
      6 C          -0.0778    2.8006   19.1907 C.3     1  UNL1        0.0186
      7 C           1.1521    2.2182   18.5596 C.3     1  UNL1        0.0372
      8 H           3.4780    0.6393   18.0496 H       1  UNL1        0.2109
      9 N           2.5226   -1.3427   19.8144 N.am    1  UNL1       -0.2819
     10 C           2.9383    0.0665   19.5124 C.2     1  UNL1        0.2502
     11 O           4.3939    0.4271   19.4732 O.2     1  UNL1       -0.2723
     12 H           1.5673   -1.5794   19.8401 H       1  UNL1        0.1549
     13 C           4.2734   -1.7921   23.9354 C.ar    1  UNL1        0.1411
     14 C           5.3132   -2.8408   24.1983 C.ar    1  UNL1        0.0681
     15 C           5.7694   -3.7397   23.0875 C.ar    1  UNL1        0.1607
     16 F           6.8092   -4.7884   23.3504 F       1  UNL1       -0.2025
     17 C           5.1858   -3.5899   21.7138 C.ar    1  UNL1        0.1100
     18 N           5.6420   -4.4888   20.6030 N.ar    1  UNL1       -0.2415
     19 C           5.0584   -4.3390   19.2294 C.ar    1  UNL1        0.1002
     20 C           4.0186   -3.2903   18.9665 C.ar    1  UNL1        0.0353
     21 C           3.5624   -2.3914   20.0772 C.ar    1  UNL1        0.0535
     22 C           4.1460   -2.5412   21.4509 C.ar    1  UNL1        0.0364
     23 C           3.6898   -1.6423   22.5617 C.ar    1  UNL1        0.0398
     24 C           2.8489    0.2168   24.7631 C.3     1  UNL1        0.2525
     25 O           3.8173   -0.8932   25.0462 O.3     1  UNL1       -0.4714
     26 N          -1.7911    2.8622   21.1428 N.3     1  UNL1       -0.2935
     27 H          -1.4962    3.7001   21.6441 H       1  UNL1        0.1236
     28 C          -2.9577    3.2577   20.2869 C.3     1  UNL1        0.1152
     29 C          -4.2221    3.7525   20.9246 C.ar    1  UNL1        0.0782
     30 C          -4.2600    4.0305   22.3981 C.ar    1  UNL1        0.0562
     31 C          -5.5244    4.5252   23.0357 C.ar    1  UNL1        0.1752
     32 C          -6.7508    4.7420   22.1998 C.ar    1  UNL1        0.1914
     33 C          -6.7130    4.4640   20.7263 C.ar    1  UNL1        0.1384
     34 N          -5.4486    3.9692   20.0886 N.ar    1  UNL1       -0.2434
     35 O          -8.0152    5.2367   22.8374 O.3     1  UNL1       -0.4668
     36 C          -8.0531    5.5147   24.3110 C.3     1  UNL1        0.2527
     37 C          -6.8266    5.2980   25.1469 C.3     1  UNL1        0.2526
     38 O          -5.5622    4.8032   24.5093 O.3     1  UNL1       -0.4683
@<TRIPOS>BOND
     1    24    25    1
     2    25    13    1
     3    13    14   ar
     4    14    15   ar
     5    15    16    1
     6    15    17   ar
     7    17    18   ar
     8    18    19   ar
     9    19    20   ar
    10    20    21   ar
    11    21     9    1
    12     9    10   am
    13    10    11    2
    14    10     1    1
    15     1     2    1
    16     1     3    1
    17     3     4    1
    18     4     5    1
    19     5    26    1
    20    26    28    1
    21    28    29    1
    22    29    30   ar
    23    30    31   ar
    24    31    32   ar
    25    32    33   ar
    26    33    34   ar
    27    32    35    1
    28    35    36    1
    29    36    37    1
    30    37    38    1
    31     5     6    1
    32     6     7    1
    33    21    22   ar
    34    22    23   ar
    35    23    13   ar
    36    22    17   ar
    37     7     1    1
    38    34    29   ar
    39    38    31    1
    40     9    12    1
    41     2     8    1
    42    26    27    1
@<TRIPOS>MOLECULE
*****
 38 42 0 0 0
SMALL
GASTEIGER

@<TRIPOS>ATOM
      1 C          -0.5002    2.7419   20.9541 C.3     1  UNL1        0.1565
      2 O          -0.8477    2.7671   22.4130 O.3     1  UNL1       -0.3781
      3 C          -0.6128    2.9600   19.4743 C.3     1  UNL1        0.0372
      4 C           0.4789    2.4864   18.5611 C.3     1  UNL1        0.0186
      5 C           1.6832    1.7948   19.1277 C.3     1  UNL1        0.0544
      6 C           1.7959    1.5766   20.6075 C.3     1  UNL1        0.0186
      7 C           0.7042    2.0502   21.5206 C.3     1  UNL1        0.0372
      8 H          -1.7056    3.2034   22.5335 H       1  UNL1        0.2109
      9 N          -3.0939    2.6439   20.8397 N.am    1  UNL1       -0.2819
     10 C          -1.8252    3.4424   20.8941 C.2     1  UNL1        0.2502
     11 O          -1.8816    4.9413   20.8887 O.2     1  UNL1       -0.2723
     12 H          -3.0568    1.6601   20.8433 H       1  UNL1        0.1549
     13 C          -5.2039    3.7959   24.6436 C.ar    1  UNL1        0.1411
     14 C          -6.5290    4.4964   24.5837 C.ar    1  UNL1        0.0681
     15 C          -7.1507    4.8128   23.2558 C.ar    1  UNL1        0.1607
     16 F          -8.4758    5.5132   23.1959 F       1  UNL1       -0.2025
     17 C          -6.4474    4.4288   21.9878 C.ar    1  UNL1        0.1100
     18 N          -7.0691    4.7452   20.6599 N.ar    1  UNL1       -0.2415
     19 C          -6.3657    4.3612   19.3920 C.ar    1  UNL1        0.1002
     20 C          -5.0406    3.6607   19.4519 C.ar    1  UNL1        0.0353
     21 C          -4.4189    3.3443   20.7798 C.ar    1  UNL1        0.0535
     22 C          -5.1223    3.7283   22.0477 C.ar    1  UNL1        0.0364
     23 C          -4.5006    3.4119   23.3757 C.ar    1  UNL1        0.0398
     24 C          -4.2789    4.5842   26.9400 C.3     1  UNL1        0.2525
     25 O          -4.5822    3.4795   25.9716 O.3     1  UNL1       -0.4714
     26 N           2.7750    1.3212   18.2145 N.3     1  UNL1       -0.2935
     27 H           3.6590    1.5538   18.6670 H       1  UNL1        0.1236
     28 C           2.8542   -0.1260   17.8278 C.3     1  UNL1        0.1152
     29 C           3.9192   -1.0026   18.4173 C.ar    1  UNL1        0.0782
     30 C           3.8499   -1.3981   19.8626 C.ar    1  UNL1        0.0562
     31 C           4.9149   -2.2747   20.4521 C.ar    1  UNL1        0.1752
     32 C           6.0490   -2.7558   19.5963 C.ar    1  UNL1        0.1914
     33 C           6.1182   -2.3603   18.1510 C.ar    1  UNL1        0.1384
     34 N           5.0532   -1.4836   17.5615 N.ar    1  UNL1       -0.2434
     35 O           7.1139   -3.6324   20.1858 O.3     1  UNL1       -0.4668
     36 C           7.0447   -4.0279   21.6310 C.3     1  UNL1        0.2527
     37 C           5.9106   -3.5468   22.4868 C.3     1  UNL1        0.2526
     38 O           4.8457   -2.6702   21.8973 O.3     1  UNL1       -0.4683
@<TRIPOS>BOND
     1    24    25    1
     2    25    13    1
     3    13    14   ar
     4    14    15   ar
     5    15    16    1
     6    15    17   ar
     7    17    18   ar
     8    18    19   ar
     9    19    20   ar
    10    20    21   ar
    11    21     9    1
    12     9    10   am
    13    10    11    2
    14    10     1    1
    15     1     2    1
    16     1     3    1
    17     3     4    1
    18     4     5    1
    19     5    26    1
    20    26    28    1
    21    28    29    1
    22    29    30   ar
    23    30    31   ar
    24    31    32   ar
    25    32    33   ar
    26    33    34   ar
    27    32    35    1
    28    35    36    1
    29    36    37    1
    30    37    38    1
    31     5     6    1
    32     6     7    1
    33    21    22   ar
    34    22    23   ar
    35    23    13   ar
    36    22    17   ar
    37     7     1    1
    38    34    29   ar
    39    38    31    1
    40     9    12    1
    41     2     8    1
    42    26    27    1
@<TRIPOS>MOLECULE
*****
 38 42 0 0 0
SMALL
GASTEIGER

@<TRIPOS>ATOM
      1 C          -0.5364    3.6729   26.8202 C.3     1  UNL1        0.1565
      2 O          -0.5113    4.7533   27.8604 O.3     1  UNL1       -0.3781
      3 C          -1.0067    2.8379   25.6662 C.3     1  UNL1        0.0372
      4 C          -0.1862    1.6716   25.2009 C.3     1  UNL1        0.0186
      5 C           1.1045    1.3402   25.8896 C.3     1  UNL1        0.0544
      6 C           1.5748    2.1752   27.0435 C.3     1  UNL1        0.0186
      7 C           0.7543    3.3415   27.5088 C.3     1  UNL1        0.0372
      8 H          -1.3023    5.3075   27.7701 H       1  UNL1        0.2109
      9 N          -3.1143    3.6243   26.5016 N.am    1  UNL1       -0.2819
     10 C          -1.8184    4.3795   26.4928 C.2     1  UNL1        0.2502
     11 O          -1.8044    5.8413   26.1566 O.2     1  UNL1       -0.2723
     12 H          -3.1235    2.6649   26.7222 H       1  UNL1        0.1549
     13 C          -4.8397    3.3489   22.3546 C.ar    1  UNL1        0.1411
     14 C          -6.1217    4.0554   22.0272 C.ar    1  UNL1        0.0681
     15 C          -6.8286    4.8538   23.0821 C.ar    1  UNL1        0.1607
     16 F          -8.1106    5.5604   22.7547 F       1  UNL1       -0.2025
     17 C          -6.2535    4.9457   24.4645 C.ar    1  UNL1        0.1100
     18 N          -6.9604    5.7441   25.5194 N.ar    1  UNL1       -0.2415
     19 C          -6.3853    5.8359   26.9017 C.ar    1  UNL1        0.1002
     20 C          -5.1032    5.1293   27.2291 C.ar    1  UNL1        0.0353
     21 C          -4.3964    4.3309   26.1742 C.ar    1  UNL1        0.0535
     22 C          -4.9715    4.2391   24.7919 C.ar    1  UNL1        0.0364
     23 C          -4.2646    3.4407   23.7369 C.ar    1  UNL1        0.0398
     24 C          -3.1350    3.2155   20.3985 C.3     1  UNL1        0.2525
     25 O          -4.1328    2.5504   21.2996 O.3     1  UNL1       -0.4714
     26 N           1.9249    0.1738   25.4243 N.3     1  UNL1       -0.2935
     27 H           1.2737   -0.5071   25.0335 H       1  UNL1        0.1236
     28 C           3.0045    0.3762   24.4027 C.3     1  UNL1        0.1152
     29 C           3.4775   -0.7799   23.5723 C.ar    1  UNL1        0.0782
     30 C           3.0678   -0.8870   22.1333 C.ar    1  UNL1        0.0562
     31 C           3.5408   -2.0432   21.3029 C.ar    1  UNL1        0.1752
     32 C           4.4235   -3.0922   21.9114 C.ar    1  UNL1        0.1914
     33 C           4.8333   -2.9851   23.3504 C.ar    1  UNL1        0.1384
     34 N           4.3603   -1.8289   24.1809 N.ar    1  UNL1       -0.2434
     35 O           4.8965   -4.2483   21.0810 O.3     1  UNL1       -0.4668
     36 C           4.4868   -4.3554   19.6420 C.3     1  UNL1        0.2527
     37 C           3.6040   -3.3064   19.0334 C.3     1  UNL1        0.2526
     38 O           3.1310   -2.1503   19.8639 O.3     1  UNL1       -0.4683
@<TRIPOS>BOND
     1    24    25    1
     2    25    13    1
     3    13    14   ar
     4    14    15   ar
     5    15    16    1
     6    15    17   ar
     7    17    18   ar
     8    18    19   ar
     9    19    20   ar
    10    20    21   ar
    11    21     9    1
    12     9    10   am
    13    10    11    2
    14    10     1    1
    15     1     2    1
    16     1     3    1
    17     3     4    1
    18     4     5    1
    19     5    26    1
    20    26    28    1
    21    28    29    1
    22    29    30   ar
    23    30    31   ar
    24    31    32   ar
    25    32    33   ar
    26    33    34   ar
    27    32    35    1
    28    35    36    1
    29    36    37    1
    30    37    38    1
    31     5     6    1
    32     6     7    1
    33    21    22   ar
    34    22    23   ar
    35    23    13   ar
    36    22    17   ar
    37     7     1    1
    38    34    29   ar
    39    38    31    1
    40     9    12    1
    41     2     8    1
    42    26    27    1
@<TRIPOS>MOLECULE
*****
 38 42 0 0 0
SMALL
GASTEIGER

@<TRIPOS>ATOM
      1 C           7.4273   -3.0709   23.6970 C.3     1  UNL1        0.1565
      2 O           8.8561   -2.7618   24.0330 O.3     1  UNL1       -0.3781
      3 C           5.9465   -3.2444   23.8613 C.3     1  UNL1        0.0372
      4 C           5.1116   -3.7011   22.7017 C.3     1  UNL1        0.0186
      5 C           5.7575   -3.9842   21.3779 C.3     1  UNL1        0.0544
      6 C           7.2384   -3.8107   21.2136 C.3     1  UNL1        0.0186
      7 C           8.0732   -3.3540   22.3732 C.3     1  UNL1        0.0372
      8 H           8.9178   -2.4866   24.9611 H       1  UNL1        0.2109
      9 N           6.2515   -3.3591   25.9957 N.am    1  UNL1       -0.2819
     10 C           7.2775   -2.6804   25.1375 C.2     1  UNL1        0.2502
     11 O           8.1539   -1.6112   25.7197 O.2     1  UNL1       -0.2723
     12 H           5.6764   -4.0608   25.6136 H       1  UNL1        0.1549
     13 C           7.7505   -6.0975   29.2368 C.ar    1  UNL1        0.1411
     14 C           7.6007   -5.7070   30.6773 C.ar    1  UNL1        0.0681
     15 C           6.9514   -4.4038   31.0375 C.ar    1  UNL1        0.1607
     16 F           6.8016   -4.0133   32.4780 F       1  UNL1       -0.2025
     17 C           6.4517   -3.4909   29.9571 C.ar    1  UNL1        0.1100
     18 N           5.8023   -2.1877   30.3173 N.ar    1  UNL1       -0.2415
     19 C           5.3026   -1.2749   29.2370 C.ar    1  UNL1        0.1002
     20 C           5.4524   -1.6654   27.7965 C.ar    1  UNL1        0.0353
     21 C           6.1018   -2.9686   27.4363 C.ar    1  UNL1        0.0535
     22 C           6.6014   -3.8814   28.5166 C.ar    1  UNL1        0.0364
     23 C           7.2509   -5.1847   28.1564 C.ar    1  UNL1        0.0398
     24 C           8.2045   -7.9833   27.5082 C.3     1  UNL1        0.2525
     25 O           8.3999   -7.4008   28.8766 O.3     1  UNL1       -0.4714
     26 N           4.9226   -4.4408   20.2184 N.3     1  UNL1       -0.2935
     27 H           3.9512   -4.4194   20.5285 H       1  UNL1        0.1236
     28 C           4.9780   -3.6986   18.9161 C.3     1  UNL1        0.1152
     29 C           4.1718   -2.4471   18.7312 C.ar    1  UNL1        0.0782
     30 C           3.0835   -2.1054   19.7053 C.ar    1  UNL1        0.0562
     31 C           2.2774   -0.8539   19.5204 C.ar    1  UNL1        0.1752
     32 C           2.5597    0.0556   18.3616 C.ar    1  UNL1        0.1914
     33 C           3.6480   -0.2861   17.3875 C.ar    1  UNL1        0.1384
     34 N           4.4541   -1.5376   17.5724 N.ar    1  UNL1       -0.2434
     35 O           1.7536    1.3071   18.1767 O.3     1  UNL1       -0.4668
     36 C           0.6652    1.6488   19.1508 C.3     1  UNL1        0.2527
     37 C           0.3830    0.7393   20.3096 C.3     1  UNL1        0.2526
     38 O           1.1891   -0.5122   20.4945 O.3     1  UNL1       -0.4683
@<TRIPOS>BOND
     1    24    25    1
     2    25    13    1
     3    13    14   ar
     4    14    15   ar
     5    15    16    1
     6    15    17   ar
     7    17    18   ar
     8    18    19   ar
     9    19    20   ar
    10    20    21   ar
    11    21     9    1
    12     9    10   am
    13    10    11    2
    14    10     1    1
    15     1     2    1
    16     1     3    1
    17     3     4    1
    18     4     5    1
    19     5    26    1
    20    26    28    1
    21    28    29    1
    22    29    30   ar
    23    30    31   ar
    24    31    32   ar
    25    32    33   ar
    26    33    34   ar
    27    32    35    1
    28    35    36    1
    29    36    37    1
    30    37    38    1
    31     5     6    1
    32     6     7    1
    33    21    22   ar
    34    22    23   ar
    35    23    13   ar
    36    22    17   ar
    37     7     1    1
    38    34    29   ar
    39    38    31    1
    40     9    12    1
    41     2     8    1
    42    26    27    1
@<TRIPOS>MOLECULE
*****
 38 42 0 0 0
SMALL
GASTEIGER

@<TRIPOS>ATOM
      1 C           0.1337    2.0385   22.4085 C.3     1  UNL1        0.1565
      2 O          -0.2929    2.8024   21.1902 O.3     1  UNL1       -0.3781
      3 C           0.7609    0.9703   23.2545 C.3     1  UNL1        0.0372
      4 C           0.6626    1.0434   24.7495 C.3     1  UNL1        0.0186
      5 C          -0.0628    2.1846   25.3985 C.3     1  UNL1        0.0544
      6 C          -0.6899    3.2529   24.5526 C.3     1  UNL1        0.0186
      7 C          -0.5916    3.1797   23.0576 C.3     1  UNL1        0.0372
      8 H           0.0184    2.3427   20.3948 H       1  UNL1        0.2109
      9 N           2.1892    1.1638   21.0818 N.am    1  UNL1       -0.2819
     10 C           0.7110    1.1625   21.3364 C.2     1  UNL1        0.2502
     11 O          -0.1901    0.2852   20.5188 O.2     1  UNL1       -0.2723
     12 H           2.7805    1.7397   21.6184 H       1  UNL1        0.1549
     13 C           4.3282   -2.6368   22.1907 C.ar    1  UNL1        0.1411
     14 C           4.9054   -3.5127   21.1186 C.ar    1  UNL1        0.0681
     15 C           4.7696   -3.1219   19.6768 C.ar    1  UNL1        0.1607
     16 F           5.3468   -3.9978   18.6047 F       1  UNL1       -0.2025
     17 C           4.0566   -1.8550   19.3071 C.ar    1  UNL1        0.1100
     18 N           3.9208   -1.4641   17.8654 N.ar    1  UNL1       -0.2415
     19 C           3.2078   -0.1972   17.4958 C.ar    1  UNL1        0.1002
     20 C           2.6306    0.6787   18.5679 C.ar    1  UNL1        0.0353
     21 C           2.7664    0.2879   20.0097 C.ar    1  UNL1        0.0535
     22 C           3.4794   -0.9790   20.3793 C.ar    1  UNL1        0.0364
     23 C           3.6152   -1.3699   21.8211 C.ar    1  UNL1        0.0398
     24 C           4.5737   -1.9690   24.6895 C.3     1  UNL1        0.2525
     25 O           4.4641   -3.0277   23.6326 O.3     1  UNL1       -0.4714
     26 N          -0.1610    2.2577   26.8936 N.3     1  UNL1       -0.2935
     27 H          -1.0784    2.6478   27.1096 H       1  UNL1        0.1236
     28 C          -0.0154    1.0121   27.7165 C.3     1  UNL1        0.1152
     29 C           0.7119    1.0602   29.0275 C.ar    1  UNL1        0.0782
     30 C           1.6314   -0.0593   29.4165 C.ar    1  UNL1        0.0562
     31 C           2.3588   -0.0112   30.7275 C.ar    1  UNL1        0.1752
     32 C           2.1666    1.1563   31.6494 C.ar    1  UNL1        0.1914
     33 C           1.2471    2.2757   31.2605 C.ar    1  UNL1        0.1384
     34 N           0.5197    2.2277   29.9494 N.ar    1  UNL1       -0.2434
     35 O           2.8939    1.2043   32.9604 O.3     1  UNL1       -0.4668
     36 C           3.8134    0.0848   33.3494 C.3     1  UNL1        0.2527
     37 C           4.0056   -1.0827   32.4275 C.3     1  UNL1        0.2526
     38 O           3.2783   -1.1307   31.1165 O.3     1  UNL1       -0.4683
@<TRIPOS>BOND
     1    24    25    1
     2    25    13    1
     3    13    14   ar
     4    14    15   ar
     5    15    16    1
     6    15    17   ar
     7    17    18   ar
     8    18    19   ar
     9    19    20   ar
    10    20    21   ar
    11    21     9    1
    12     9    10   am
    13    10    11    2
    14    10     1    1
    15     1     2    1
    16     1     3    1
    17     3     4    1
    18     4     5    1
    19     5    26    1
    20    26    28    1
    21    28    29    1
    22    29    30   ar
    23    30    31   ar
    24    31    32   ar
    25    32    33   ar
    26    33    34   ar
    27    32    35    1
    28    35    36    1
    29    36    37    1
    30    37    38    1
    31     5     6    1
    32     6     7    1
    33    21    22   ar
    34    22    23   ar
    35    23    13   ar
    36    22    17   ar
    37     7     1    1
    38    34    29   ar
    39    38    31    1
    40     9    12    1
    41     2     8    1
    42    26    27    1
@<TRIPOS>MOLECULE
*****
 38 42 0 0 0
SMALL
GASTEIGER

@<TRIPOS>ATOM
      1 C           8.0418   -5.4814   23.2761 C.3     1  UNL1        0.1565
      2 O           8.6558   -5.9460   21.9888 O.3     1  UNL1       -0.3781
      3 C           7.4007   -4.5765   24.2861 C.3     1  UNL1        0.0372
      4 C           7.0506   -5.1006   25.6473 C.3     1  UNL1        0.0186
      5 C           7.3416   -6.5295   25.9984 C.3     1  UNL1        0.0544
      6 C           7.9826   -7.4344   24.9884 C.3     1  UNL1        0.0186
      7 C           8.3327   -6.9103   23.6272 C.3     1  UNL1        0.0372
      8 H           8.6741   -5.2115   21.3556 H       1  UNL1        0.2109
      9 N           8.3356   -4.2186   21.0247 N.am    1  UNL1       -0.2819
     10 C           7.9640   -4.2138   22.4779 C.2     1  UNL1        0.2502
     11 O           7.5147   -2.9413   23.1330 O.2     1  UNL1       -0.2723
     12 H           8.6305   -5.0537   20.5947 H       1  UNL1        0.1549
     13 C           4.5292   -3.1396   18.8805 C.ar    1  UNL1        0.1411
     14 C           4.4515   -1.8720   18.0823 C.ar    1  UNL1        0.0681
     15 C           5.6426   -0.9640   17.9989 C.ar    1  UNL1        0.1607
     16 F           5.5648    0.3036   17.2007 F       1  UNL1       -0.2025
     17 C           6.9114   -1.3237   18.7136 C.ar    1  UNL1        0.1100
     18 N           8.1025   -0.4157   18.6301 N.ar    1  UNL1       -0.2415
     19 C           9.3712   -0.7754   19.3448 C.ar    1  UNL1        0.1002
     20 C           9.4489   -2.0430   20.1430 C.ar    1  UNL1        0.0353
     21 C           8.2579   -2.9510   20.2265 C.ar    1  UNL1        0.0535
     22 C           6.9891   -2.5913   19.5118 C.ar    1  UNL1        0.0364
     23 C           5.7980   -3.4993   19.5953 C.ar    1  UNL1        0.0398
     24 C           3.4287   -5.3352   19.7280 C.3     1  UNL1        0.2525
     25 O           3.3381   -4.0476   18.9640 O.3     1  UNL1       -0.4714
     26 N           6.9915   -7.0536   27.3596 N.3     1  UNL1       -0.2935
     27 H           6.9637   -8.0705   27.2854 H       1  UNL1        0.1236
     28 C           7.8642   -6.7289   28.5356 C.3     1  UNL1        0.1152
     29 C           7.4077   -5.7270   29.5544 C.ar    1  UNL1        0.0782
     30 C           7.1150   -4.3156   29.1395 C.ar    1  UNL1        0.0562
     31 C           6.6585   -3.3137   30.1583 C.ar    1  UNL1        0.1752
     32 C           6.4948   -3.7234   31.5920 C.ar    1  UNL1        0.1914
     33 C           6.7875   -5.1349   32.0069 C.ar    1  UNL1        0.1384
     34 N           7.2440   -6.1367   30.9880 N.ar    1  UNL1       -0.2434
     35 O           6.0383   -2.7216   32.6108 O.3     1  UNL1       -0.4668
     36 C           5.7456   -1.3101   32.1959 C.3     1  UNL1        0.2527
     37 C           5.9094   -0.9004   30.7623 C.3     1  UNL1        0.2526
     38 O           6.3659   -1.9023   29.7434 O.3     1  UNL1       -0.4683
@<TRIPOS>BOND
     1    24    25    1
     2    25    13    1
     3    13    14   ar
     4    14    15   ar
     5    15    16    1
     6    15    17   ar
     7    17    18   ar
     8    18    19   ar
     9    19    20   ar
    10    20    21   ar
    11    21     9    1
    12     9    10   am
    13    10    11    2
    14    10     1    1
    15     1     2    1
    16     1     3    1
    17     3     4    1
    18     4     5    1
    19     5    26    1
    20    26    28    1
    21    28    29    1
    22    29    30   ar
    23    30    31   ar
    24    31    32   ar
    25    32    33   ar
    26    33    34   ar
    27    32    35    1
    28    35    36    1
    29    36    37    1
    30    37    38    1
    31     5     6    1
    32     6     7    1
    33    21    22   ar
    34    22    23   ar
    35    23    13   ar
    36    22    17   ar
    37     7     1    1
    38    34    29   ar
    39    38    31    1
    40     9    12    1
    41     2     8    1
    42    26    27    1
