@<TRIPOS>MOLECULE
*****
 35 38 0 0 0
SMALL
GASTEIGER

@<TRIPOS>ATOM
      1 C           4.0676   -1.1982   25.8083 C.ar    1  UNL1        0.2036
      2 N           5.2997   -2.0277   25.5992 N.ar    1  UNL1       -0.0556
      3 O           5.3396   -2.4435   24.1585 O.2     1  UNL1       -0.3324
      4 C           4.1320   -1.8710   23.4772 C.ar    1  UNL1        0.2600
      5 N           3.3459   -1.1013   24.4969 N.ar    1  UNL1       -0.1870
      6 C           2.4304    1.3113   32.2623 C.2     1  UNL1        0.2297
      7 O           3.3965    0.2636   32.7299 O.2     1  UNL1       -0.2745
      8 N           2.1538    1.4762   30.7973 N.am    1  UNL1       -0.2586
      9 C           1.2178    2.4749   30.1837 C.3     1  UNL1        0.1029
     10 C           1.2503    2.2874   28.6958 C.3     1  UNL1        0.0495
     11 C           2.2064    1.1728   28.3899 C.ar    1  UNL1       -0.0067
     12 C           2.6406    0.5496   27.0964 C.ar    1  UNL1        0.0002
     13 C           3.6333   -0.5749   27.1018 C.ar    1  UNL1        0.0389
     14 C           4.1917   -1.0762   28.4006 C.ar    1  UNL1        0.0044
     15 C           3.7575   -0.4530   29.6940 C.ar    1  UNL1        0.0147
     16 C           2.7648    0.6715   29.6886 C.ar    1  UNL1        0.0499
     17 C           1.7406    2.1941   33.2599 C.3     1  UNL1        0.0915
     18 C           2.5445    2.9407   34.2827 C.3     1  UNL1        0.0513
     19 O           1.9360    2.5058   36.7708 O.co2   1  UNL1       -0.5492
     20 C           2.8560    2.3021   35.6037 C.2     1  UNL1        0.0508
     21 O           4.0876    1.4598   35.7576 O.co2   1  UNL1       -0.5492
     22 C           3.7736   -2.0386   22.0304 C.ar    1  UNL1        0.0560
     23 C           4.2732   -3.2293   21.2671 C.ar    1  UNL1        0.0086
     24 C           3.9148   -3.3970   19.8202 C.ar    1  UNL1        0.0715
     25 C           3.0567   -2.3740   19.1367 C.ar    1  UNL1        0.0077
     26 C           2.5571   -1.1833   19.9000 C.ar    1  UNL1        0.0715
     27 C           2.9156   -1.0156   21.3468 C.ar    1  UNL1        0.0086
     28 C           4.4144   -4.5877   19.0570 C.3     1  UNL1        0.4186
     29 F           4.9141   -5.7783   18.2936 F       1  UNL1       -0.1659
     30 F           3.5080   -5.4787   19.8535 F       1  UNL1       -0.1659
     31 F           5.3208   -3.6966   18.2604 F       1  UNL1       -0.1659
     32 C           1.6991   -0.1603   19.2164 C.3     1  UNL1        0.4186
     33 F           0.8411    0.8627   18.5329 F       1  UNL1       -0.1659
     34 F           2.7773    0.0635   18.1979 F       1  UNL1       -0.1659
     35 F           0.6209   -0.3840   20.2350 F       1  UNL1       -0.1659
@<TRIPOS>UNITY_ATOM_ATTR
19 1
charge -1
@<TRIPOS>BOND
     1    19    20   ar
     2    20    21   ar
     3    20    18    1
     4    18    17    1
     5    17     6    1
     6     6     7    2
     7     6     8   am
     8     8     9    1
     9     9    10    1
    10    10    11    1
    11    11    12   ar
    12    12    13   ar
    13    13     1    1
    14     1     2   ar
    15     2     3   ar
    16     3     4   ar
    17     4    22    1
    18    22    23   ar
    19    23    24   ar
    20    24    28    1
    21    28    29    1
    22    28    30    1
    23    28    31    1
    24    24    25   ar
    25    25    26   ar
    26    26    32    1
    27    32    33    1
    28    32    34    1
    29    32    35    1
    30    26    27   ar
    31     4     5   ar
    32    13    14   ar
    33    14    15   ar
    34    15    16   ar
    35    16     8    1
    36    16    11   ar
    37     5     1   ar
    38    27    22   ar
@<TRIPOS>MOLECULE
*****
 35 38 0 0 0
SMALL
GASTEIGER

@<TRIPOS>ATOM
      1 C           4.1946   -1.2068   26.1134 C.ar    1  UNL1        0.2036
      2 N           5.4483   -1.9959   25.8776 N.ar    1  UNL1       -0.0556
      3 O           5.4717   -2.4090   24.4357 O.2     1  UNL1       -0.3324
      4 C           4.2325   -1.8751   23.7804 C.ar    1  UNL1        0.2600
      5 N           3.4432   -1.1321   24.8173 N.ar    1  UNL1       -0.1870
      6 C           2.7224    1.3735   32.5792 C.2     1  UNL1        0.2297
      7 O           3.9666    0.6343   32.9730 O.2     1  UNL1       -0.2745
      8 N           2.2494    1.3412   31.1561 N.am    1  UNL1       -0.2586
      9 C           1.0298    2.0279   30.6165 C.3     1  UNL1        0.1029
     10 C           0.9397    1.7275   29.1496 C.3     1  UNL1        0.0495
     11 C           2.1035    0.8552   28.7827 C.ar    1  UNL1       -0.0067
     12 C           2.5307    0.2475   27.4796 C.ar    1  UNL1        0.0002
     13 C           3.7673   -0.5990   27.4165 C.ar    1  UNL1        0.0389
     14 C           4.5768   -0.8378   28.6566 C.ar    1  UNL1        0.0044
     15 C           4.1496   -0.2301   29.9597 C.ar    1  UNL1        0.0147
     16 C           2.9129    0.6164   30.0227 C.ar    1  UNL1        0.0499
     17 C           1.9509    2.1452   33.6086 C.3     1  UNL1        0.0915
     18 C           2.6778    2.8758   34.6985 C.3     1  UNL1        0.0513
     19 O           3.9956    1.2773   36.2664 O.co2   1  UNL1       -0.5492
     20 C           2.8604    2.2315   36.0407 C.2     1  UNL1        0.0508
     21 O           1.9079    2.5414   37.1572 O.co2   1  UNL1       -0.5492
     22 C           3.8497   -2.0529   22.3410 C.ar    1  UNL1        0.0560
     23 C           2.9599   -1.0477   21.6719 C.ar    1  UNL1        0.0086
     24 C           2.5772   -1.2256   20.2325 C.ar    1  UNL1        0.0715
     25 C           3.0843   -2.4086   19.4622 C.ar    1  UNL1        0.0077
     26 C           3.9741   -3.4138   20.1314 C.ar    1  UNL1        0.0715
     27 C           4.3569   -3.2360   21.5708 C.ar    1  UNL1        0.0086
     28 C           1.6874   -0.2204   19.5633 C.3     1  UNL1        0.4186
     29 F           0.7976    0.7849   18.8941 F       1  UNL1       -0.1659
     30 F           0.5471   -0.6462   20.4398 F       1  UNL1       -0.1659
     31 F           2.8277    0.2055   18.6868 F       1  UNL1       -0.1659
     32 C           4.4812   -4.5969   19.3612 C.3     1  UNL1        0.4186
     33 F           4.9883   -5.7799   18.5910 F       1  UNL1       -0.1659
     34 F           5.8451   -4.3976   19.9530 F       1  UNL1       -0.1659
     35 F           3.1174   -4.7962   18.7693 F       1  UNL1       -0.1659
@<TRIPOS>UNITY_ATOM_ATTR
19 1
charge -1
@<TRIPOS>BOND
     1    19    20   ar
     2    20    21   ar
     3    20    18    1
     4    18    17    1
     5    17     6    1
     6     6     7    2
     7     6     8   am
     8     8     9    1
     9     9    10    1
    10    10    11    1
    11    11    12   ar
    12    12    13   ar
    13    13     1    1
    14     1     2   ar
    15     2     3   ar
    16     3     4   ar
    17     4    22    1
    18    22    23   ar
    19    23    24   ar
    20    24    28    1
    21    28    29    1
    22    28    30    1
    23    28    31    1
    24    24    25   ar
    25    25    26   ar
    26    26    32    1
    27    32    33    1
    28    32    34    1
    29    32    35    1
    30    26    27   ar
    31     4     5   ar
    32    13    14   ar
    33    14    15   ar
    34    15    16   ar
    35    16     8    1
    36    16    11   ar
    37     5     1   ar
    38    27    22   ar
@<TRIPOS>MOLECULE
*****
 35 38 0 0 0
SMALL
GASTEIGER

@<TRIPOS>ATOM
      1 C           5.3531   -1.2218   25.7269 C.ar    1  UNL1        0.2036
      2 N           6.5668   -0.7313   24.9946 N.ar    1  UNL1       -0.0556
      3 O           6.3189   -0.8952   23.5244 O.2     1  UNL1       -0.3324
      4 C           4.9519   -1.4871   23.3480 C.ar    1  UNL1        0.2600
      5 N           4.3550   -1.6889   24.7093 N.ar    1  UNL1       -0.1870
      6 C           5.0596   -1.6985   32.8205 C.2     1  UNL1        0.2297
      7 O           6.3121   -2.5059   32.6499 O.2     1  UNL1       -0.2745
      8 N           4.3652   -1.1285   31.6193 N.am    1  UNL1       -0.2586
      9 C           3.1112   -0.3055   31.6338 C.3     1  UNL1        0.1029
     10 C           2.7739    0.0502   30.2162 C.3     1  UNL1        0.0495
     11 C           3.8193   -0.5531   29.3256 C.ar    1  UNL1       -0.0067
     12 C           4.0027   -0.5331   27.8370 C.ar    1  UNL1        0.0002
     13 C           5.1696   -1.2417   27.2156 C.ar    1  UNL1        0.0389
     14 C           6.1531   -1.9702   28.0828 C.ar    1  UNL1        0.0044
     15 C           5.9697   -1.9901   29.5714 C.ar    1  UNL1        0.0147
     16 C           4.8028   -1.2816   30.1927 C.ar    1  UNL1        0.0499
     17 C           4.5015   -1.4611   34.1925 C.3     1  UNL1        0.0915
     18 C           4.7230   -0.1437   34.8746 C.3     1  UNL1        0.0513
     19 O           3.9441    0.4521   37.2805 O.co2   1  UNL1       -0.5492
     20 C           4.9847   -0.0982   36.3509 C.2     1  UNL1        0.0508
     21 O           6.2872   -0.6031   36.8975 O.co2   1  UNL1       -0.5492
     22 C           4.2968   -1.8189   22.0400 C.ar    1  UNL1        0.0560
     23 C           4.6833   -3.0669   21.3030 C.ar    1  UNL1        0.0086
     24 C           4.0282   -3.3987   19.9950 C.ar    1  UNL1        0.0715
     25 C           2.9867   -2.4825   19.4241 C.ar    1  UNL1        0.0077
     26 C           2.6002   -1.2346   20.1612 C.ar    1  UNL1        0.0715
     27 C           3.2552   -0.9028   21.4692 C.ar    1  UNL1        0.0086
     28 C           4.4147   -4.6466   19.2580 C.3     1  UNL1        0.4186
     29 F           4.8011   -5.8946   18.5208 F       1  UNL1       -0.1659
     30 F           5.8150   -4.5220   19.7810 F       1  UNL1       -0.1659
     31 F           3.0144   -4.7713   18.7348 F       1  UNL1       -0.1659
     32 C           1.5586   -0.3185   19.5903 C.3     1  UNL1        0.4186
     33 F           0.5171    0.5976   19.0195 F       1  UNL1       -0.1659
     34 F           2.5731    0.2413   18.6377 F       1  UNL1       -0.1659
     35 F           0.5441   -0.8782   20.5430 F       1  UNL1       -0.1659
@<TRIPOS>UNITY_ATOM_ATTR
19 1
charge -1
@<TRIPOS>BOND
     1    19    20   ar
     2    20    21   ar
     3    20    18    1
     4    18    17    1
     5    17     6    1
     6     6     7    2
     7     6     8   am
     8     8     9    1
     9     9    10    1
    10    10    11    1
    11    11    12   ar
    12    12    13   ar
    13    13     1    1
    14     1     2   ar
    15     2     3   ar
    16     3     4   ar
    17     4    22    1
    18    22    23   ar
    19    23    24   ar
    20    24    28    1
    21    28    29    1
    22    28    30    1
    23    28    31    1
    24    24    25   ar
    25    25    26   ar
    26    26    32    1
    27    32    33    1
    28    32    34    1
    29    32    35    1
    30    26    27   ar
    31     4     5   ar
    32    13    14   ar
    33    14    15   ar
    34    15    16   ar
    35    16     8    1
    36    16    11   ar
    37     5     1   ar
    38    27    22   ar
@<TRIPOS>MOLECULE
*****
 35 38 0 0 0
SMALL
GASTEIGER

@<TRIPOS>ATOM
      1 C           5.3508   -1.2691   25.6648 C.ar    1  UNL1        0.2036
      2 N           6.6105   -0.8992   24.9392 N.ar    1  UNL1       -0.0556
      3 O           6.3652   -1.0683   23.4691 O.2     1  UNL1       -0.3324
      4 C           4.9539   -1.5426   23.2861 C.ar    1  UNL1        0.2600
      5 N           4.3271   -1.6667   24.6432 N.ar    1  UNL1       -0.1870
      6 C           5.0173   -1.4644   32.7699 C.2     1  UNL1        0.2297
      7 O           6.3607   -2.1203   32.6471 O.2     1  UNL1       -0.2745
      8 N           4.2759   -1.0367   31.5381 N.am    1  UNL1       -0.2586
      9 C           2.9315   -0.3724   31.5043 C.3     1  UNL1        0.1029
     10 C           2.5735   -0.1233   30.0691 C.3     1  UNL1        0.0495
     11 C           3.6967   -0.6337   29.2159 C.ar    1  UNL1       -0.0067
     12 C           3.8974   -0.6573   27.7296 C.ar    1  UNL1        0.0002
     13 C           5.1502   -1.2454   27.1512 C.ar    1  UNL1        0.0389
     14 C           6.2023   -1.8099   28.0591 C.ar    1  UNL1        0.0044
     15 C           6.0017   -1.7863   29.5454 C.ar    1  UNL1        0.0147
     16 C           4.7489   -1.1982   30.1238 C.ar    1  UNL1        0.0499
     17 C           4.4152   -1.2363   34.1248 C.3     1  UNL1        0.0915
     18 C           4.7450    0.0098   34.8919 C.3     1  UNL1        0.0513
     19 O           6.3550   -0.6218   36.8308 O.co2   1  UNL1       -0.5492
     20 C           5.0420   -0.0698   36.3600 C.2     1  UNL1        0.0508
     21 O           4.0261    0.4025   37.3574 O.co2   1  UNL1       -0.5492
     22 C           4.2868   -1.8406   21.9761 C.ar    1  UNL1        0.0560
     23 C           3.2349   -0.9140   21.4424 C.ar    1  UNL1        0.0086
     24 C           2.5677   -1.2119   20.1324 C.ar    1  UNL1        0.0715
     25 C           2.9525   -2.4364   19.3561 C.ar    1  UNL1        0.0077
     26 C           4.0044   -3.3630   19.8899 C.ar    1  UNL1        0.0715
     27 C           4.6715   -3.0651   21.1999 C.ar    1  UNL1        0.0086
     28 C           1.5158   -0.2853   19.5986 C.3     1  UNL1        0.4186
     29 F           0.4639    0.6413   19.0648 F       1  UNL1       -0.1659
     30 F           0.5136   -0.8784   20.5440 F       1  UNL1       -0.1659
     31 F           2.5180    0.3078   18.6532 F       1  UNL1       -0.1659
     32 C           4.3891   -4.5875   19.1136 C.3     1  UNL1        0.4186
     33 F           4.7739   -5.8119   18.3374 F       1  UNL1       -0.1659
     34 F           5.2266   -3.7442   18.1984 F       1  UNL1       -0.1659
     35 F           3.5517   -5.4308   20.0288 F       1  UNL1       -0.1659
@<TRIPOS>UNITY_ATOM_ATTR
19 1
charge -1
@<TRIPOS>BOND
     1    19    20   ar
     2    20    21   ar
     3    20    18    1
     4    18    17    1
     5    17     6    1
     6     6     7    2
     7     6     8   am
     8     8     9    1
     9     9    10    1
    10    10    11    1
    11    11    12   ar
    12    12    13   ar
    13    13     1    1
    14     1     2   ar
    15     2     3   ar
    16     3     4   ar
    17     4    22    1
    18    22    23   ar
    19    23    24   ar
    20    24    28    1
    21    28    29    1
    22    28    30    1
    23    28    31    1
    24    24    25   ar
    25    25    26   ar
    26    26    32    1
    27    32    33    1
    28    32    34    1
    29    32    35    1
    30    26    27   ar
    31     4     5   ar
    32    13    14   ar
    33    14    15   ar
    34    15    16   ar
    35    16     8    1
    36    16    11   ar
    37     5     1   ar
    38    27    22   ar
@<TRIPOS>MOLECULE
*****
 35 38 0 0 0
SMALL
GASTEIGER

@<TRIPOS>ATOM
      1 C           4.2353   -1.3038   25.8875 C.ar    1  UNL1        0.2036
      2 N           5.5037   -2.0599   25.6241 N.ar    1  UNL1       -0.0556
      3 O           5.5164   -2.4538   24.1768 O.2     1  UNL1       -0.3324
      4 C           4.2559   -1.9411   23.5457 C.ar    1  UNL1        0.2600
      5 N           3.4641   -1.2304   24.6031 N.ar    1  UNL1       -0.1870
      6 C           1.7791    1.8408   31.7791 C.2     1  UNL1        0.2297
      7 O           0.8933    2.5740   30.8160 O.2     1  UNL1       -0.2745
      8 N           2.7596    0.8251   31.2722 N.am    1  UNL1       -0.2586
      9 C           3.7054    0.0176   32.1109 C.3     1  UNL1        0.1029
     10 C           4.4967   -0.8681   31.1947 C.3     1  UNL1        0.0495
     11 C           4.0399   -0.6079   29.7898 C.ar    1  UNL1       -0.0067
     12 C           4.4629   -1.1887   28.4731 C.ar    1  UNL1        0.0002
     13 C           3.8123   -0.7230   27.2043 C.ar    1  UNL1        0.0389
     14 C           2.7387    0.3234   27.2523 C.ar    1  UNL1        0.0044
     15 C           2.3157    0.9042   28.5690 C.ar    1  UNL1        0.0147
     16 C           2.9663    0.4385   29.8377 C.ar    1  UNL1        0.0499
     17 C           1.6844    2.1234   33.2493 C.3     1  UNL1        0.0915
     18 C           1.6472    3.5405   33.7397 C.3     1  UNL1        0.0513
     19 O           2.0638    2.7625   36.1833 O.co2   1  UNL1       -0.5492
     20 C           2.0310    3.8544   35.1554 C.2     1  UNL1        0.0508
     21 O           2.3820    5.2603   35.5431 O.co2   1  UNL1       -0.5492
     22 C           3.8571   -2.1096   22.1096 C.ar    1  UNL1        0.0560
     23 C           4.3405   -3.2973   21.3314 C.ar    1  UNL1        0.0086
     24 C           3.9417   -3.4658   19.8952 C.ar    1  UNL1        0.0715
     25 C           3.0596   -2.4465   19.2372 C.ar    1  UNL1        0.0077
     26 C           2.5763   -1.2587   20.0154 C.ar    1  UNL1        0.0715
     27 C           2.9750   -1.0903   21.4516 C.ar    1  UNL1        0.0086
     28 C           4.4251   -4.6536   19.1171 C.3     1  UNL1        0.4186
     29 F           4.9086   -5.8413   18.3388 F       1  UNL1       -0.1659
     30 F           3.4711   -5.5341   19.8684 F       1  UNL1       -0.1659
     31 F           5.3792   -3.7730   18.3657 F       1  UNL1       -0.1659
     32 C           1.6942   -0.2394   19.3574 C.3     1  UNL1        0.4186
     33 F           0.8121    0.7798   18.6994 F       1  UNL1       -0.1659
     34 F           0.5422   -0.6877   20.2072 F       1  UNL1       -0.1659
     35 F           2.8461    0.2089   18.5076 F       1  UNL1       -0.1659
@<TRIPOS>UNITY_ATOM_ATTR
19 1
charge -1
@<TRIPOS>BOND
     1    19    20   ar
     2    20    21   ar
     3    20    18    1
     4    18    17    1
     5    17     6    1
     6     6     7    2
     7     6     8   am
     8     8     9    1
     9     9    10    1
    10    10    11    1
    11    11    12   ar
    12    12    13   ar
    13    13     1    1
    14     1     2   ar
    15     2     3   ar
    16     3     4   ar
    17     4    22    1
    18    22    23   ar
    19    23    24   ar
    20    24    28    1
    21    28    29    1
    22    28    30    1
    23    28    31    1
    24    24    25   ar
    25    25    26   ar
    26    26    32    1
    27    32    33    1
    28    32    34    1
    29    32    35    1
    30    26    27   ar
    31     4     5   ar
    32    13    14   ar
    33    14    15   ar
    34    15    16   ar
    35    16     8    1
    36    16    11   ar
    37     5     1   ar
    38    27    22   ar
@<TRIPOS>MOLECULE
*****
 35 38 0 0 0
SMALL
GASTEIGER

@<TRIPOS>ATOM
      1 C          -0.1535    2.0413   19.6507 C.ar    1  UNL1        0.2036
      2 N          -0.2105    3.2917   18.8241 N.ar    1  UNL1       -0.0556
      3 O          -1.4912    4.0028   19.1470 O.2     1  UNL1       -0.3324
      4 C          -2.2257    3.1919   20.1732 C.ar    1  UNL1        0.2600
      5 N          -1.3989    1.9796   20.4845 N.ar    1  UNL1       -0.1870
      6 C           4.9134   -2.9161   20.2688 C.2     1  UNL1        0.2297
      7 O           4.3359   -3.0946   21.6415 O.2     1  UNL1       -0.2745
      8 N           4.3277   -1.8988   19.3351 N.am    1  UNL1       -0.2586
      9 C           4.7966   -1.6093   17.9400 C.3     1  UNL1        0.1029
     10 C           3.9288   -0.5239   17.3752 C.3     1  UNL1        0.0495
     11 C           2.9237   -0.1426   18.4213 C.ar    1  UNL1       -0.0067
     12 C           1.8158    0.8686   18.4273 C.ar    1  UNL1        0.0002
     13 C           0.9544    1.0301   19.6446 C.ar    1  UNL1        0.0389
     14 C           1.2009    0.1804   20.8559 C.ar    1  UNL1        0.0044
     15 C           2.3088   -0.8308   20.8499 C.ar    1  UNL1        0.0147
     16 C           3.1702   -0.9923   19.6325 C.ar    1  UNL1        0.0499
     17 C           6.0769   -3.7551   19.8298 C.3     1  UNL1        0.0915
     18 C           7.4406   -3.5044   20.4019 C.3     1  UNL1        0.0513
     19 O           7.3350   -5.0279   22.5038 O.co2   1  UNL1       -0.5492
     20 C           8.0756   -4.5235   21.3009 C.2     1  UNL1        0.0508
     21 O           9.4513   -5.0383   20.9968 O.co2   1  UNL1       -0.5492
     22 C          -3.5537    3.5333   20.7813 C.ar    1  UNL1        0.0560
     23 C          -3.7205    3.5244   22.2720 C.ar    1  UNL1        0.0086
     24 C          -5.0485    3.8658   22.8801 C.ar    1  UNL1        0.0715
     25 C          -6.2097    4.2161   21.9975 C.ar    1  UNL1        0.0077
     26 C          -6.0429    4.2250   20.5068 C.ar    1  UNL1        0.0715
     27 C          -4.7149    3.8836   19.8987 C.ar    1  UNL1        0.0086
     28 C          -5.2153    3.8569   24.3707 C.3     1  UNL1        0.4186
     29 F          -5.3820    3.8480   25.8614 F       1  UNL1       -0.1659
     30 F          -6.6348    4.3158   24.2147 F       1  UNL1       -0.1659
     31 F          -3.7957    3.3981   24.5268 F       1  UNL1       -0.1659
     32 C          -7.2041    4.5754   19.6242 C.3     1  UNL1        0.4186
     33 F          -8.3652    4.9256   18.7417 F       1  UNL1       -0.1659
     34 F          -6.7734    3.5271   18.6415 F       1  UNL1       -0.1659
     35 F          -7.6348    5.6236   20.6070 F       1  UNL1       -0.1659
@<TRIPOS>UNITY_ATOM_ATTR
19 1
charge -1
@<TRIPOS>BOND
     1    19    20   ar
     2    20    21   ar
     3    20    18    1
     4    18    17    1
     5    17     6    1
     6     6     7    2
     7     6     8   am
     8     8     9    1
     9     9    10    1
    10    10    11    1
    11    11    12   ar
    12    12    13   ar
    13    13     1    1
    14     1     2   ar
    15     2     3   ar
    16     3     4   ar
    17     4    22    1
    18    22    23   ar
    19    23    24   ar
    20    24    28    1
    21    28    29    1
    22    28    30    1
    23    28    31    1
    24    24    25   ar
    25    25    26   ar
    26    26    32    1
    27    32    33    1
    28    32    34    1
    29    32    35    1
    30    26    27   ar
    31     4     5   ar
    32    13    14   ar
    33    14    15   ar
    34    15    16   ar
    35    16     8    1
    36    16    11   ar
    37     5     1   ar
    38    27    22   ar
@<TRIPOS>MOLECULE
*****
 35 38 0 0 0
SMALL
GASTEIGER

@<TRIPOS>ATOM
      1 C           5.5138   -1.4357   25.6447 C.ar    1  UNL1        0.2036
      2 N           6.7842   -1.1464   24.9016 N.ar    1  UNL1       -0.0556
      3 O           6.5115   -1.3107   23.4358 O.2     1  UNL1       -0.3324
      4 C           5.0725   -1.7015   23.2730 C.ar    1  UNL1        0.2600
      5 N           4.4559   -1.7787   24.6382 N.ar    1  UNL1       -0.1870
      6 C           4.0483   -0.9074   32.5877 C.2     1  UNL1        0.2297
      7 O           2.7888   -0.2546   32.1004 O.2     1  UNL1       -0.2745
      8 N           5.0700   -1.3945   31.6034 N.am    1  UNL1       -0.2586
      9 C           6.3698   -2.0631   31.9400 C.3     1  UNL1        0.1029
     10 C           7.0744   -2.3803   30.6543 C.3     1  UNL1        0.0495
     11 C           6.2100   -1.9077   29.5232 C.ar    1  UNL1       -0.0067
     12 C           6.3909   -1.9535   28.0349 C.ar    1  UNL1        0.0002
     13 C           5.3329   -1.3899   27.1331 C.ar    1  UNL1        0.0389
     14 C           4.0941   -0.7806   27.7197 C.ar    1  UNL1        0.0044
     15 C           3.9132   -0.7349   29.2081 C.ar    1  UNL1        0.0147
     16 C           4.9712   -1.2984   30.1098 C.ar    1  UNL1        0.0499
     17 C           4.2860   -1.0731   34.0595 C.3     1  UNL1        0.0915
     18 C           4.8843    0.0499   34.8538 C.3     1  UNL1        0.0513
     19 O           6.3262   -0.6231   36.9076 O.co2   1  UNL1       -0.5492
     20 C           5.0467   -0.0852   36.3388 C.2     1  UNL1        0.0508
     21 O           3.9295    0.3177   37.2551 O.co2   1  UNL1       -0.5492
     22 C           4.3729   -1.9681   21.9732 C.ar    1  UNL1        0.0560
     23 C           4.7328   -3.1775   21.1621 C.ar    1  UNL1        0.0086
     24 C           4.0333   -3.4442   19.8623 C.ar    1  UNL1        0.0715
     25 C           2.9738   -2.5015   19.3736 C.ar    1  UNL1        0.0077
     26 C           2.6139   -1.2921   20.1846 C.ar    1  UNL1        0.0715
     27 C           3.3134   -1.0254   21.4844 C.ar    1  UNL1        0.0086
     28 C           4.3932   -4.6536   19.0513 C.3     1  UNL1        0.4186
     29 F           4.7532   -5.8630   18.2401 F       1  UNL1       -0.1659
     30 F           3.5008   -5.4970   19.9127 F       1  UNL1       -0.1659
     31 F           5.2857   -3.8102   18.1898 F       1  UNL1       -0.1659
     32 C           1.5544   -0.3494   19.6959 C.3     1  UNL1        0.4186
     33 F           0.4950    0.5932   19.2072 F       1  UNL1       -0.1659
     34 F           0.5460   -1.0265   20.5760 F       1  UNL1       -0.1659
     35 F           2.5629    0.3277   18.8158 F       1  UNL1       -0.1659
@<TRIPOS>UNITY_ATOM_ATTR
19 1
charge -1
@<TRIPOS>BOND
     1    19    20   ar
     2    20    21   ar
     3    20    18    1
     4    18    17    1
     5    17     6    1
     6     6     7    2
     7     6     8   am
     8     8     9    1
     9     9    10    1
    10    10    11    1
    11    11    12   ar
    12    12    13   ar
    13    13     1    1
    14     1     2   ar
    15     2     3   ar
    16     3     4   ar
    17     4    22    1
    18    22    23   ar
    19    23    24   ar
    20    24    28    1
    21    28    29    1
    22    28    30    1
    23    28    31    1
    24    24    25   ar
    25    25    26   ar
    26    26    32    1
    27    32    33    1
    28    32    34    1
    29    32    35    1
    30    26    27   ar
    31     4     5   ar
    32    13    14   ar
    33    14    15   ar
    34    15    16   ar
    35    16     8    1
    36    16    11   ar
    37     5     1   ar
    38    27    22   ar
@<TRIPOS>MOLECULE
*****
 35 38 0 0 0
SMALL
GASTEIGER

@<TRIPOS>ATOM
      1 C           4.2774   -1.1277   26.1769 C.ar    1  UNL1        0.2036
      2 N           5.5020   -1.9613   25.9418 N.ar    1  UNL1       -0.0556
      3 O           5.5004   -2.3926   24.5051 O.2     1  UNL1       -0.3324
      4 C           4.2747   -1.8254   23.8523 C.ar    1  UNL1        0.2600
      5 N           3.5189   -1.0437   24.8855 N.ar    1  UNL1       -0.1870
      6 C           1.7385    1.7763   32.1563 C.2     1  UNL1        0.2297
      7 O           0.4073    1.4170   31.5660 O.2     1  UNL1       -0.2745
      8 N           3.0003    1.4575   31.4105 N.am    1  UNL1       -0.2586
      9 C           4.3963    1.7547   31.8721 C.3     1  UNL1        0.1029
     10 C           5.3464    1.2664   30.8191 C.3     1  UNL1        0.0495
     11 C           4.5377    0.6674   29.7068 C.ar    1  UNL1       -0.0067
     12 C           4.9343    0.0297   28.4083 C.ar    1  UNL1        0.0002
     13 C           3.8809   -0.4899   27.4754 C.ar    1  UNL1        0.0389
     14 C           2.4309   -0.3718   27.8410 C.ar    1  UNL1        0.0044
     15 C           2.0343    0.2659   29.1394 C.ar    1  UNL1        0.0147
     16 C           3.0877    0.7855   30.0723 C.ar    1  UNL1        0.0499
     17 C           1.8080    2.4544   33.4925 C.3     1  UNL1        0.0915
     18 C           1.6363    3.9415   33.5887 C.3     1  UNL1        0.0513
     19 O           1.1983    5.1502   31.3310 O.co2   1  UNL1       -0.5492
     20 C           0.7007    4.6503   32.6548 C.2     1  UNL1        0.0508
     21 O          -0.7326    4.8591   33.0447 O.co2   1  UNL1       -0.5492
     22 C           3.8751   -2.0080   22.4181 C.ar    1  UNL1        0.0560
     23 C           2.9783   -1.0043   21.7558 C.ar    1  UNL1        0.0086
     24 C           2.5787   -1.1869   20.3216 C.ar    1  UNL1        0.0715
     25 C           3.0758   -2.3731   19.5497 C.ar    1  UNL1        0.0077
     26 C           3.9725   -3.3767   20.2119 C.ar    1  UNL1        0.0715
     27 C           4.3722   -3.1941   21.6461 C.ar    1  UNL1        0.0086
     28 C           1.6820   -0.1832   19.6594 C.3     1  UNL1        0.4186
     29 F           0.7851    0.8203   18.9972 F       1  UNL1       -0.1659
     30 F           2.8535    0.3602   18.8964 F       1  UNL1       -0.1659
     31 F           0.5104   -0.7267   20.4224 F       1  UNL1       -0.1659
     32 C           4.4696   -4.5629   19.4400 C.3     1  UNL1        0.4186
     33 F           4.9667   -5.7490   18.6681 F       1  UNL1       -0.1659
     34 F           5.8770   -4.2348   19.8422 F       1  UNL1       -0.1659
     35 F           3.0623   -4.8910   19.0378 F       1  UNL1       -0.1659
@<TRIPOS>UNITY_ATOM_ATTR
19 1
charge -1
@<TRIPOS>BOND
     1    19    20   ar
     2    20    21   ar
     3    20    18    1
     4    18    17    1
     5    17     6    1
     6     6     7    2
     7     6     8   am
     8     8     9    1
     9     9    10    1
    10    10    11    1
    11    11    12   ar
    12    12    13   ar
    13    13     1    1
    14     1     2   ar
    15     2     3   ar
    16     3     4   ar
    17     4    22    1
    18    22    23   ar
    19    23    24   ar
    20    24    28    1
    21    28    29    1
    22    28    30    1
    23    28    31    1
    24    24    25   ar
    25    25    26   ar
    26    26    32    1
    27    32    33    1
    28    32    34    1
    29    32    35    1
    30    26    27   ar
    31     4     5   ar
    32    13    14   ar
    33    14    15   ar
    34    15    16   ar
    35    16     8    1
    36    16    11   ar
    37     5     1   ar
    38    27    22   ar
@<TRIPOS>MOLECULE
*****
 35 38 0 0 0
SMALL
GASTEIGER

@<TRIPOS>ATOM
      1 C          -0.8272    2.4865   20.5953 C.ar    1  UNL1        0.2036
      2 N          -1.5579    3.4476   19.7053 N.ar    1  UNL1       -0.0556
      3 O          -2.5789    4.1654   20.5374 O.2     1  UNL1       -0.3324
      4 C          -2.4793    3.6477   21.9418 C.ar    1  UNL1        0.2600
      5 N          -1.3967    2.6101   21.9775 N.ar    1  UNL1       -0.1870
      6 C           4.3094   -1.6737   17.9610 C.2     1  UNL1        0.2297
      7 O           3.8998   -1.0645   16.6530 O.2     1  UNL1       -0.2745
      8 N           3.6106   -1.2735   19.2265 N.am    1  UNL1       -0.2586
      9 C           3.9090   -1.7943   20.6011 C.3     1  UNL1        0.1029
     10 C           2.9734   -1.1248   21.5636 C.3     1  UNL1        0.0495
     11 C           2.0968   -0.1902   20.7839 C.ar    1  UNL1       -0.0067
     12 C           0.9909    0.7326   21.2025 C.ar    1  UNL1        0.0002
     13 C           0.2788    1.5636   20.1767 C.ar    1  UNL1        0.0389
     14 C           0.6726    1.4717   18.7322 C.ar    1  UNL1        0.0044
     15 C           1.7785    0.5489   18.3136 C.ar    1  UNL1        0.0147
     16 C           2.4906   -0.2821   19.3394 C.ar    1  UNL1        0.0499
     17 C           5.4181   -2.6833   18.0036 C.3     1  UNL1        0.0915
     18 C           6.8400   -2.2299   18.1538 C.3     1  UNL1        0.0513
     19 O           7.3064   -0.2120   19.7225 O.co2   1  UNL1       -0.5492
     20 C           7.1470   -0.7736   18.3408 C.2     1  UNL1        0.0508
     21 O           7.2945    0.1211   17.1459 O.co2   1  UNL1       -0.5492
     22 C          -3.3154    4.0901   23.1059 C.ar    1  UNL1        0.0560
     23 C          -2.6559    4.5176   24.3835 C.ar    1  UNL1        0.0086
     24 C          -3.4920    4.9600   25.5476 C.ar    1  UNL1        0.0715
     25 C          -4.9876    4.9748   25.4341 C.ar    1  UNL1        0.0077
     26 C          -5.6472    4.5472   24.1565 C.ar    1  UNL1        0.0715
     27 C          -4.8110    4.1049   22.9924 C.ar    1  UNL1        0.0086
     28 C          -2.8325    5.3875   26.8252 C.3     1  UNL1        0.4186
     29 F          -2.1731    5.8151   28.1028 F       1  UNL1       -0.1659
     30 F          -1.4867    5.2439   26.1786 F       1  UNL1       -0.1659
     31 F          -4.1784    5.5311   27.4718 F       1  UNL1       -0.1659
     32 C          -7.1428    4.5620   24.0431 C.3     1  UNL1        0.4186
     33 F          -8.6384    4.5768   23.9296 F       1  UNL1       -0.1659
     34 F          -7.0538    3.7778   22.7675 F       1  UNL1       -0.1659
     35 F          -7.2318    5.3463   25.3187 F       1  UNL1       -0.1659
@<TRIPOS>UNITY_ATOM_ATTR
19 1
charge -1
@<TRIPOS>BOND
     1    19    20   ar
     2    20    21   ar
     3    20    18    1
     4    18    17    1
     5    17     6    1
     6     6     7    2
     7     6     8   am
     8     8     9    1
     9     9    10    1
    10    10    11    1
    11    11    12   ar
    12    12    13   ar
    13    13     1    1
    14     1     2   ar
    15     2     3   ar
    16     3     4   ar
    17     4    22    1
    18    22    23   ar
    19    23    24   ar
    20    24    28    1
    21    28    29    1
    22    28    30    1
    23    28    31    1
    24    24    25   ar
    25    25    26   ar
    26    26    32    1
    27    32    33    1
    28    32    34    1
    29    32    35    1
    30    26    27   ar
    31     4     5   ar
    32    13    14   ar
    33    14    15   ar
    34    15    16   ar
    35    16     8    1
    36    16    11   ar
    37     5     1   ar
    38    27    22   ar
