@<TRIPOS>MOLECULE
*****
 36 42 0 0 0
SMALL
GASTEIGER

@<TRIPOS>ATOM
      1 O           7.9673    2.3818   35.7754 O.2     1  UNL1       -0.2501
      2 C           7.5156    1.1986   34.9716 C.2     1  UNL1        0.3310
      3 N           8.3510    0.4257   33.9945 N.am    1  UNL1       -0.1647
      4 C           7.5009   -0.6699   33.4228 C.2     1  UNL1        0.0706
      5 C           7.7901   -1.7424   32.4147 C.3     1  UNL1        0.0708
      6 C           6.7185   -2.7191   32.0305 C.2     1  UNL1       -0.0163
      7 C           5.3577   -2.6234   32.6542 C.2     1  UNL1       -0.0026
      8 C           5.0684   -1.5509   33.6623 C.2     1  UNL1        0.0156
      9 C           6.1400   -0.5742   34.0465 C.2     1  UNL1        0.0669
     10 N           6.1492    0.5807   35.0038 N.am    1  UNL1       -0.2409
     11 C           7.0076   -3.7917   31.0225 C.2     1  UNL1       -0.0038
     12 C           6.7452   -3.5433   29.5667 C.2     1  UNL1        0.0024
     13 C           6.1939   -2.1903   29.2264 C.ar    1  UNL1       -0.0004
     14 C           6.0166   -1.3463   30.4537 C.ar    1  UNL1       -0.0002
     15 C           5.4754    0.0474   30.3336 C.ar    1  UNL1       -0.0000
     16 C           5.1115    0.5972   28.9862 C.ar    1  UNL1       -0.0002
     17 C           5.2888   -0.2468   27.7590 C.ar    1  UNL1       -0.0007
     18 C           5.8301   -1.6406   27.8791 C.ar    1  UNL1        0.0212
     19 C           5.9275   -2.3080   26.5393 C.3     1  UNL1        0.2320
     20 O           6.4129   -3.6899   26.2158 O.3     1  UNL1       -0.4706
     21 C           6.9208   -4.7458   27.1525 C.ar    1  UNL1        0.1412
     22 C           7.3073   -5.9931   26.4143 C.ar    1  UNL1        0.0665
     23 C           7.8417   -7.1752   27.1675 C.ar    1  UNL1        0.1432
     24 F           8.2282   -8.4225   26.4294 F       1  UNL1       -0.2041
     25 C           7.9895   -7.1099   28.6587 C.ar    1  UNL1        0.0298
     26 C           7.6030   -5.8626   29.3968 C.ar    1  UNL1        0.0053
     27 C           7.0687   -4.6806   28.6438 C.ar    1  UNL1        0.0341
     28 C           4.9946    1.0374   35.8453 C.3     1  UNL1        0.0987
     29 C           4.1735    2.2724   35.6202 C.3     1  UNL1        0.0402
     30 C           3.1298    2.3375   36.6956 C.3     1  UNL1        0.0891
     31 C           2.0419    3.3304   36.9796 C.3     1  UNL1        0.1581
     32 O           1.1300    3.1285   38.1534 O.3     1  UNL1       -0.3509
     33 C           1.3060    1.9338   39.0432 C.3     1  UNL1        0.1595
     34 C           2.3940    0.9410   38.7591 C.3     1  UNL1        0.1046
     35 N           3.3058    1.1428   37.5854 N.3     1  UNL1       -0.2681
     36 C           4.4583    0.3392   37.0600 C.3     1  UNL1        0.0927
@<TRIPOS>BOND
     1     1     2    2
     2     2     3    1
     3     3     4    2
     4     4     5    1
     5     5     6    1
     6     6    11    1
     7    11    12    2
     8    12    13    1
     9    13    14   ar
    10    14    15   ar
    11    15    16   ar
    12    16    17   ar
    13    17    18   ar
    14    18    19    1
    15    19    20    1
    16    20    21    1
    17    21    22   ar
    18    22    23   ar
    19    23    24    1
    20    23    25   ar
    21    25    26   ar
    22    26    27   ar
    23     6     7    2
    24     7     8    1
    25     8     9    2
    26     9    10    1
    27    28    10    1
    28    28    29    1
    29    30    29    1
    30    30    31    1
    31    31    32    1
    32    32    33    1
    33    33    34    1
    34    34    35    1
    35    35    36    1
    36    10     2   am
    37    36    28    1
    38     9     4    1
    39    35    30    1
    40    27    12    1
    41    18    13   ar
    42    27    21   ar
@<TRIPOS>MOLECULE
*****
 36 42 0 0 0
SMALL
GASTEIGER

@<TRIPOS>ATOM
      1 O           0.7146    6.1250   19.4898 O.2     1  UNL1       -0.2501
      2 C           0.9756    4.7382   19.9986 C.2     1  UNL1        0.3310
      3 N           2.2788    4.2278   20.5384 N.am    1  UNL1       -0.1647
      4 C           2.0878    2.7926   20.9302 C.2     1  UNL1        0.0706
      5 C           3.0245    1.7799   21.5196 C.3     1  UNL1        0.0708
      6 C           2.5398    0.3907   21.8114 C.2     1  UNL1       -0.0163
      7 C           1.1187    0.0140   21.5138 C.2     1  UNL1       -0.0026
      8 C           0.1821    1.0267   20.9244 C.2     1  UNL1        0.0156
      9 C           0.6667    2.4159   20.6326 C.2     1  UNL1        0.0669
     10 N          -0.0207    3.6185   20.0568 N.am    1  UNL1       -0.2409
     11 C           3.4764   -0.6220   22.4007 C.2     1  UNL1       -0.0038
     12 C           4.3241   -1.4723   21.5016 C.2     1  UNL1        0.0024
     13 C           4.1585   -1.2300   20.0306 C.ar    1  UNL1       -0.0004
     14 C           3.1480   -0.1544   19.7627 C.ar    1  UNL1       -0.0002
     15 C           2.8322    0.2433   18.3513 C.ar    1  UNL1       -0.0000
     16 C           3.5269   -0.4347   17.2078 C.ar    1  UNL1       -0.0002
     17 C           4.5374   -1.5104   17.4757 C.ar    1  UNL1       -0.0007
     18 C           4.8532   -1.9080   18.8871 C.ar    1  UNL1        0.0212
     19 C           5.8851   -2.9958   18.9322 C.3     1  UNL1        0.2320
     20 O           6.4771   -3.6743   20.1318 O.3     1  UNL1       -0.4706
     21 C           6.1834   -3.4324   21.5828 C.ar    1  UNL1        0.1412
     22 C           6.9990   -4.3313   22.4642 C.ar    1  UNL1        0.0665
     23 C           6.8563   -4.2503   23.9552 C.ar    1  UNL1        0.1432
     24 F           7.6719   -5.1492   24.8366 F       1  UNL1       -0.2041
     25 C           5.8982   -3.2704   24.5648 C.ar    1  UNL1        0.0298
     26 C           5.0827   -2.3715   23.6835 C.ar    1  UNL1        0.0053
     27 C           5.2252   -2.4525   22.1925 C.ar    1  UNL1        0.0341
     28 C          -1.4528    3.6888   19.6166 C.3     1  UNL1        0.0987
     29 C          -1.9387    4.1033   18.2594 C.3     1  UNL1        0.0402
     30 C          -3.4368    4.0277   18.2603 C.3     1  UNL1        0.0891
     31 C          -4.4572    4.3192   17.2001 C.3     1  UNL1        0.1581
     32 O          -5.9175    4.1496   17.4978 O.3     1  UNL1       -0.3509
     33 C          -6.3576    3.6883   18.8556 C.3     1  UNL1        0.1595
     34 C          -5.3372    3.3968   19.9158 C.3     1  UNL1        0.1046
     35 N          -3.8768    3.5665   19.6181 N.3     1  UNL1       -0.2681
     36 C          -2.6507    3.3570   20.4564 C.3     1  UNL1        0.0927
@<TRIPOS>BOND
     1     1     2    2
     2     2     3    1
     3     3     4    2
     4     4     5    1
     5     5     6    1
     6     6    11    1
     7    11    12    2
     8    12    13    1
     9    13    14   ar
    10    14    15   ar
    11    15    16   ar
    12    16    17   ar
    13    17    18   ar
    14    18    19    1
    15    19    20    1
    16    20    21    1
    17    21    22   ar
    18    22    23   ar
    19    23    24    1
    20    23    25   ar
    21    25    26   ar
    22    26    27   ar
    23     6     7    2
    24     7     8    1
    25     8     9    2
    26     9    10    1
    27    28    10    1
    28    28    29    1
    29    30    29    1
    30    30    31    1
    31    31    32    1
    32    32    33    1
    33    33    34    1
    34    34    35    1
    35    35    36    1
    36    10     2   am
    37    36    28    1
    38     9     4    1
    39    35    30    1
    40    27    12    1
    41    18    13   ar
    42    27    21   ar
@<TRIPOS>MOLECULE
*****
 36 42 0 0 0
SMALL
GASTEIGER

@<TRIPOS>ATOM
      1 O           4.3312    4.0116   30.7933 O.2     1  UNL1       -0.2501
      2 C           3.1374    3.5487   30.0118 C.2     1  UNL1        0.3310
      3 N           2.1486    4.4300   29.3077 N.am    1  UNL1       -0.1647
      4 C           1.1230    3.5492   28.6579 C.2     1  UNL1        0.0706
      5 C          -0.0882    3.8612   27.8299 C.3     1  UNL1        0.0708
      6 C          -0.9445    2.7474   27.3044 C.2     1  UNL1       -0.0163
      7 C          -0.5897    1.3217   27.6068 C.2     1  UNL1       -0.0026
      8 C           0.6215    1.0097   28.4348 C.2     1  UNL1        0.0156
      9 C           1.4779    2.1235   28.9604 C.2     1  UNL1        0.0669
     10 N           2.7229    2.1232   29.7971 N.am    1  UNL1       -0.2409
     11 C          -2.1558    3.0593   26.4763 C.2     1  UNL1       -0.0038
     12 C          -2.0453    3.1287   24.9820 C.2     1  UNL1        0.0024
     13 C          -0.6796    2.8703   24.4178 C.ar    1  UNL1       -0.0004
     14 C           0.3172    2.5885   25.5026 C.ar    1  UNL1       -0.0002
     15 C           1.7473    2.3031   25.1513 C.ar    1  UNL1       -0.0000
     16 C           2.1804    2.2994   23.7152 C.ar    1  UNL1       -0.0002
     17 C           1.1836    2.5812   22.6304 C.ar    1  UNL1       -0.0007
     18 C          -0.2464    2.8667   22.9817 C.ar    1  UNL1        0.0212
     19 C          -1.0719    3.1205   21.7552 C.3     1  UNL1        0.2320
     20 O          -2.5344    3.4406   21.6618 O.3     1  UNL1       -0.4706
     21 C          -3.5326    3.5860   22.7720 C.ar    1  UNL1        0.1412
     22 C          -4.8975    3.9123   22.2423 C.ar    1  UNL1        0.0665
     23 C          -6.0448    4.0998   23.1904 C.ar    1  UNL1        0.1432
     24 F          -7.4097    4.4261   22.6607 F       1  UNL1       -0.2041
     25 C          -5.8271    3.9610   24.6679 C.ar    1  UNL1        0.0298
     26 C          -4.4622    3.6347   25.1976 C.ar    1  UNL1        0.0053
     27 C          -3.3150    3.4472   24.2496 C.ar    1  UNL1        0.0341
     28 C           3.4293    0.9104   30.3262 C.3     1  UNL1        0.0987
     29 C           3.1632    0.2385   31.6406 C.3     1  UNL1        0.0402
     30 C           4.0953   -0.9307   31.7606 C.3     1  UNL1        0.0891
     31 C           4.2860   -1.9558   32.8390 C.3     1  UNL1        0.1581
     32 O           5.3188   -3.0314   32.6771 O.3     1  UNL1       -0.3509
     33 C           6.1609   -3.0821   31.4368 C.3     1  UNL1        0.1595
     34 C           5.9702   -2.0570   30.3584 C.3     1  UNL1        0.1046
     35 N           4.9373   -0.9813   30.5203 N.3     1  UNL1       -0.2681
     36 C           4.5258    0.1565   29.6338 C.3     1  UNL1        0.0927
@<TRIPOS>BOND
     1     1     2    2
     2     2     3    1
     3     3     4    2
     4     4     5    1
     5     5     6    1
     6     6    11    1
     7    11    12    2
     8    12    13    1
     9    13    14   ar
    10    14    15   ar
    11    15    16   ar
    12    16    17   ar
    13    17    18   ar
    14    18    19    1
    15    19    20    1
    16    20    21    1
    17    21    22   ar
    18    22    23   ar
    19    23    24    1
    20    23    25   ar
    21    25    26   ar
    22    26    27   ar
    23     6     7    2
    24     7     8    1
    25     8     9    2
    26     9    10    1
    27    28    10    1
    28    28    29    1
    29    30    29    1
    30    30    31    1
    31    31    32    1
    32    32    33    1
    33    33    34    1
    34    34    35    1
    35    35    36    1
    36    10     2   am
    37    36    28    1
    38     9     4    1
    39    35    30    1
    40    27    12    1
    41    18    13   ar
    42    27    21   ar
@<TRIPOS>MOLECULE
*****
 36 42 0 0 0
SMALL
GASTEIGER

@<TRIPOS>ATOM
      1 O           0.0276    7.3212   23.8200 O.2     1  UNL1       -0.2501
      2 C           0.3251    5.8600   23.9832 C.2     1  UNL1        0.3310
      3 N           1.6451    5.1950   23.7276 N.am    1  UNL1       -0.1647
      4 C           1.4905    3.7314   24.0171 C.2     1  UNL1        0.0706
      5 C           2.4559    2.5858   23.9412 C.3     1  UNL1        0.0708
      6 C           2.0057    1.2007   24.2998 C.2     1  UNL1       -0.0163
      7 C           0.5902    0.9610   24.7343 C.2     1  UNL1       -0.0026
      8 C          -0.3752    2.1066   24.8103 C.2     1  UNL1        0.0156
      9 C           0.0749    3.4918   24.4517 C.2     1  UNL1        0.0669
     10 N          -0.6453    4.8074   24.4307 N.am    1  UNL1       -0.2409
     11 C           2.9710    0.0550   24.2239 C.2     1  UNL1       -0.0038
     12 C           3.1330   -0.7055   22.9412 C.2     1  UNL1        0.0024
     13 C           2.2833   -0.2393   21.7964 C.ar    1  UNL1       -0.0004
     14 C           1.4246    0.9258   22.1902 C.ar    1  UNL1       -0.0002
     15 C           0.4967    1.5461   21.1881 C.ar    1  UNL1       -0.0000
     16 C           0.4274    1.0012   19.7923 C.ar    1  UNL1       -0.0002
     17 C           1.2861   -0.1639   19.3985 C.ar    1  UNL1       -0.0007
     18 C           2.2141   -0.7841   20.4005 C.ar    1  UNL1        0.0212
     19 C           2.9774   -1.9298   19.8049 C.3     1  UNL1        0.2320
     20 O           3.9985   -2.8135   20.4578 O.3     1  UNL1       -0.4706
     21 C           4.5085   -2.7698   21.8678 C.ar    1  UNL1        0.1412
     22 C           5.5320   -3.8385   22.1136 C.ar    1  UNL1        0.0665
     23 C           6.1703   -3.9690   23.4648 C.ar    1  UNL1        0.1432
     24 F           7.1938   -5.0376   23.7107 F       1  UNL1       -0.2041
     25 C           5.7852   -3.0309   24.5700 C.ar    1  UNL1        0.0298
     26 C           4.7617   -1.9622   24.3241 C.ar    1  UNL1        0.0053
     27 C           4.1233   -1.8317   22.9730 C.ar    1  UNL1        0.0341
     28 C          -2.0834    5.0310   24.7935 C.3     1  UNL1        0.0987
     29 C          -2.6186    5.2607   26.1759 C.3     1  UNL1        0.0402
     30 C          -4.1049    5.4359   26.0743 C.3     1  UNL1        0.0891
     31 C          -5.1587    5.6903   27.1111 C.3     1  UNL1        0.1581
     32 O          -6.5959    5.8233   26.7028 O.3     1  UNL1       -0.3509
     33 C          -6.9794    5.7019   25.2577 C.3     1  UNL1        0.1595
     34 C          -5.9255    5.4475   24.2209 C.3     1  UNL1        0.1046
     35 N          -4.4883    5.3145   24.6293 N.3     1  UNL1       -0.2681
     36 C          -3.2390    5.0643   23.8376 C.3     1  UNL1        0.0927
@<TRIPOS>BOND
     1     1     2    2
     2     2     3    1
     3     3     4    2
     4     4     5    1
     5     5     6    1
     6     6    11    1
     7    11    12    2
     8    12    13    1
     9    13    14   ar
    10    14    15   ar
    11    15    16   ar
    12    16    17   ar
    13    17    18   ar
    14    18    19    1
    15    19    20    1
    16    20    21    1
    17    21    22   ar
    18    22    23   ar
    19    23    24    1
    20    23    25   ar
    21    25    26   ar
    22    26    27   ar
    23     6     7    2
    24     7     8    1
    25     8     9    2
    26     9    10    1
    27    28    10    1
    28    28    29    1
    29    30    29    1
    30    30    31    1
    31    31    32    1
    32    32    33    1
    33    33    34    1
    34    34    35    1
    35    35    36    1
    36    10     2   am
    37    36    28    1
    38     9     4    1
    39    35    30    1
    40    27    12    1
    41    18    13   ar
    42    27    21   ar
@<TRIPOS>MOLECULE
*****
 36 42 0 0 0
SMALL
GASTEIGER

@<TRIPOS>ATOM
      1 O          -1.4065    5.0993   23.2382 O.2     1  UNL1       -0.2501
      2 C          -0.7216    3.9126   22.6277 C.2     1  UNL1        0.3310
      3 N           0.5493    3.2813   23.1142 N.am    1  UNL1       -0.1647
      4 C           0.8689    2.1274   22.2107 C.2     1  UNL1        0.0706
      5 C           1.9987    1.1406   22.2045 C.3     1  UNL1        0.0708
      6 C           2.0551    0.0720   21.1534 C.2     1  UNL1       -0.0163
      7 C           0.9820   -0.0100   20.1086 C.2     1  UNL1       -0.0026
      8 C          -0.1478    0.9768   20.1149 C.2     1  UNL1        0.0156
      9 C          -0.2043    2.0455   21.1659 C.2     1  UNL1        0.0669
     10 N          -1.1873    3.1488   21.4237 N.am    1  UNL1       -0.2409
     11 C           3.1849   -0.9148   21.1470 C.2     1  UNL1       -0.0038
     12 C           4.4095   -0.6477   20.3230 C.2     1  UNL1        0.0024
     13 C           4.4025    0.6338   19.5434 C.ar    1  UNL1       -0.0004
     14 C           3.1317    1.4004   19.7605 C.ar    1  UNL1       -0.0002
     15 C           2.9218    2.7153   19.0700 C.ar    1  UNL1       -0.0000
     16 C           3.9828    3.2636   18.1624 C.ar    1  UNL1       -0.0002
     17 C           5.2536    2.4970   17.9453 C.ar    1  UNL1       -0.0007
     18 C           5.4635    1.1821   18.6358 C.ar    1  UNL1        0.0212
     19 C           6.7934    0.5842   18.2837 C.3     1  UNL1        0.2320
     20 O           7.3909   -0.7094   18.7521 O.3     1  UNL1       -0.4706
     21 C           6.8059   -1.7249   19.6885 C.ar    1  UNL1        0.1412
     22 C           7.7377   -2.8824   19.8932 C.ar    1  UNL1        0.0665
     23 C           7.3427   -4.0124   20.7971 C.ar    1  UNL1        0.1432
     24 F           8.2745   -5.1699   21.0019 F       1  UNL1       -0.2041
     25 C           6.0159   -3.9850   21.4962 C.ar    1  UNL1        0.0298
     26 C           5.0841   -2.8275   21.2915 C.ar    1  UNL1        0.0053
     27 C           5.4790   -1.6975   20.3876 C.ar    1  UNL1        0.0341
     28 C          -2.4195    3.4376   20.6188 C.3     1  UNL1        0.0987
     29 C          -2.4521    3.9615   19.2136 C.3     1  UNL1        0.0402
     30 C          -3.8884    4.1009   18.8041 C.3     1  UNL1        0.0891
     31 C          -4.5280    4.5700   17.5309 C.3     1  UNL1        0.1581
     32 O          -6.0228    4.6012   17.4098 O.3     1  UNL1       -0.3509
     33 C          -6.8780    4.1634   18.5618 C.3     1  UNL1        0.1595
     34 C          -6.2382    3.6944   19.8350 C.3     1  UNL1        0.1046
     35 N          -4.7435    3.6632   19.9560 N.3     1  UNL1       -0.2681
     36 C          -3.8357    3.2532   21.0777 C.3     1  UNL1        0.0927
@<TRIPOS>BOND
     1     1     2    2
     2     2     3    1
     3     3     4    2
     4     4     5    1
     5     5     6    1
     6     6    11    1
     7    11    12    2
     8    12    13    1
     9    13    14   ar
    10    14    15   ar
    11    15    16   ar
    12    16    17   ar
    13    17    18   ar
    14    18    19    1
    15    19    20    1
    16    20    21    1
    17    21    22   ar
    18    22    23   ar
    19    23    24    1
    20    23    25   ar
    21    25    26   ar
    22    26    27   ar
    23     6     7    2
    24     7     8    1
    25     8     9    2
    26     9    10    1
    27    28    10    1
    28    28    29    1
    29    30    29    1
    30    30    31    1
    31    31    32    1
    32    32    33    1
    33    33    34    1
    34    34    35    1
    35    35    36    1
    36    10     2   am
    37    36    28    1
    38     9     4    1
    39    35    30    1
    40    27    12    1
    41    18    13   ar
    42    27    21   ar
@<TRIPOS>MOLECULE
*****
 36 42 0 0 0
SMALL
GASTEIGER

@<TRIPOS>ATOM
      1 O           0.5086    6.1130   19.1136 O.2     1  UNL1       -0.2501
      2 C           0.8068    4.6929   19.4938 C.2     1  UNL1        0.3310
      3 N           2.1567    4.1376   19.8394 N.am    1  UNL1       -0.1647
      4 C           1.9917    2.6804   20.1542 C.2     1  UNL1        0.0706
      5 C           2.9759    1.6232   20.5589 C.3     1  UNL1        0.0708
      6 C           2.5082    0.2208   20.8126 C.2     1  UNL1       -0.0163
      7 C           1.0563   -0.1246   20.6616 C.2     1  UNL1       -0.0026
      8 C           0.0721    0.9326   20.2569 C.2     1  UNL1        0.0156
      9 C           0.5398    2.3350   20.0032 C.2     1  UNL1        0.0669
     10 N          -0.1925    3.5789   19.5950 N.am    1  UNL1       -0.2409
     11 C           3.4924   -0.8364   21.2173 C.2     1  UNL1       -0.0038
     12 C           3.7848   -1.0726   22.6694 C.2     1  UNL1        0.0024
     13 C           3.0398   -0.1980   23.6339 C.ar    1  UNL1       -0.0004
     14 C           2.1317    0.7576   22.9182 C.ar    1  UNL1       -0.0002
     15 C           1.2932    1.7242   23.7009 C.ar    1  UNL1       -0.0000
     16 C           1.3630    1.7353   25.1993 C.ar    1  UNL1       -0.0002
     17 C           2.2711    0.7798   25.9149 C.ar    1  UNL1       -0.0007
     18 C           3.1095   -0.1868   25.1322 C.ar    1  UNL1        0.0212
     19 C           3.9415   -1.0476   26.0361 C.3     1  UNL1        0.2320
     20 O           4.9091   -2.1321   25.6650 O.3     1  UNL1       -0.4706
     21 C           5.2837   -2.6236   24.2982 C.ar    1  UNL1        0.1412
     22 C           6.2945   -3.7294   24.3716 C.ar    1  UNL1        0.0665
     23 C           6.8050   -4.3638   23.1118 C.ar    1  UNL1        0.1432
     24 F           7.8158   -5.4696   23.1851 F       1  UNL1       -0.2041
     25 C           6.3046   -3.8923   21.7787 C.ar    1  UNL1        0.0298
     26 C           5.2938   -2.7864   21.7053 C.ar    1  UNL1        0.0053
     27 C           4.7834   -2.1521   22.9650 C.ar    1  UNL1        0.0341
     28 C          -1.6654    3.6893   19.3339 C.3     1  UNL1        0.0987
     29 C          -2.3020    4.1713   18.0641 C.3     1  UNL1        0.0402
     30 C          -3.7905    4.1170   18.2422 C.3     1  UNL1        0.0891
     31 C          -4.9245    4.4704   17.3261 C.3     1  UNL1        0.1581
     32 O          -6.3417    4.3083   17.7900 O.3     1  UNL1       -0.3509
     33 C          -6.6250    3.7928   19.1699 C.3     1  UNL1        0.1595
     34 C          -5.4909    3.4394   20.0859 C.3     1  UNL1        0.1046
     35 N          -4.0737    3.6016   19.6221 N.3     1  UNL1       -0.2681
     36 C          -2.7604    3.3372   20.2969 C.3     1  UNL1        0.0927
@<TRIPOS>BOND
     1     1     2    2
     2     2     3    1
     3     3     4    2
     4     4     5    1
     5     5     6    1
     6     6    11    1
     7    11    12    2
     8    12    13    1
     9    13    14   ar
    10    14    15   ar
    11    15    16   ar
    12    16    17   ar
    13    17    18   ar
    14    18    19    1
    15    19    20    1
    16    20    21    1
    17    21    22   ar
    18    22    23   ar
    19    23    24    1
    20    23    25   ar
    21    25    26   ar
    22    26    27   ar
    23     6     7    2
    24     7     8    1
    25     8     9    2
    26     9    10    1
    27    28    10    1
    28    28    29    1
    29    30    29    1
    30    30    31    1
    31    31    32    1
    32    32    33    1
    33    33    34    1
    34    34    35    1
    35    35    36    1
    36    10     2   am
    37    36    28    1
    38     9     4    1
    39    35    30    1
    40    27    12    1
    41    18    13   ar
    42    27    21   ar
@<TRIPOS>MOLECULE
*****
 36 42 0 0 0
SMALL
GASTEIGER

@<TRIPOS>ATOM
      1 O           9.5287   -1.6580   27.3797 O.2     1  UNL1       -0.2501
      2 C           8.7739   -1.6506   28.6760 C.2     1  UNL1        0.3310
      3 N           8.5839   -0.4679   29.5788 N.am    1  UNL1       -0.1647
      4 C           7.7693   -0.9109   30.7578 C.2     1  UNL1        0.0706
      5 C           7.2724   -0.1761   31.9675 C.3     1  UNL1        0.0708
      6 C           6.4620   -0.8980   33.0029 C.2     1  UNL1       -0.0163
      7 C           6.1485   -2.3545   32.8288 C.2     1  UNL1       -0.0026
      8 C           6.6453   -3.0892   31.6191 C.2     1  UNL1        0.0156
      9 C           7.4557   -2.3674   30.5836 C.2     1  UNL1        0.0669
     10 N           8.0766   -2.8245   29.2969 N.am    1  UNL1       -0.2409
     11 C           5.9651   -0.1633   34.2127 C.2     1  UNL1       -0.0038
     12 C           4.6728    0.5957   34.1510 C.2     1  UNL1        0.0024
     13 C           3.9568    0.5556   32.8335 C.ar    1  UNL1       -0.0004
     14 C           4.7094   -0.2613   31.8254 C.ar    1  UNL1       -0.0002
     15 C           4.1637   -0.4293   30.4384 C.ar    1  UNL1       -0.0000
     16 C           2.8655    0.2194   30.0594 C.ar    1  UNL1       -0.0002
     17 C           2.1129    1.0363   31.0675 C.ar    1  UNL1       -0.0007
     18 C           2.6585    1.2043   32.4546 C.ar    1  UNL1        0.0212
     19 C           1.7557    2.0534   33.2995 C.3     1  UNL1        0.2320
     20 O           1.9280    2.4635   34.7321 O.3     1  UNL1       -0.4706
     21 C           3.0460    2.1257   35.6735 C.ar    1  UNL1        0.1412
     22 C           2.8298    2.7413   37.0242 C.ar    1  UNL1        0.0665
     23 C           3.8352    2.5256   38.1163 C.ar    1  UNL1        0.1432
     24 F           3.6191    3.1411   39.4670 F       1  UNL1       -0.2041
     25 C           5.0567    1.6944   37.8577 C.ar    1  UNL1        0.0298
     26 C           5.2729    1.0788   36.5070 C.ar    1  UNL1        0.0053
     27 C           4.2675    1.2945   35.4149 C.ar    1  UNL1        0.0341
     28 C           8.0117   -4.2120   28.7307 C.3     1  UNL1        0.0987
     29 C           7.2018   -4.6429   27.5439 C.3     1  UNL1        0.0402
     30 C           7.4348   -6.1094   27.3316 C.3     1  UNL1        0.0891
     31 C           6.9016   -7.0733   26.3134 C.3     1  UNL1        0.1581
     32 O           7.3223   -8.5126   26.3508 O.3     1  UNL1       -0.3509
     33 C           8.2762   -8.9881   27.4063 C.3     1  UNL1        0.1595
     34 C           8.8093   -8.0242   28.4245 C.3     1  UNL1        0.1046
     35 N           8.3886   -6.5849   28.3871 N.3     1  UNL1       -0.2681
     36 C           8.7452   -5.4122   29.2518 C.3     1  UNL1        0.0927
@<TRIPOS>BOND
     1     1     2    2
     2     2     3    1
     3     3     4    2
     4     4     5    1
     5     5     6    1
     6     6    11    1
     7    11    12    2
     8    12    13    1
     9    13    14   ar
    10    14    15   ar
    11    15    16   ar
    12    16    17   ar
    13    17    18   ar
    14    18    19    1
    15    19    20    1
    16    20    21    1
    17    21    22   ar
    18    22    23   ar
    19    23    24    1
    20    23    25   ar
    21    25    26   ar
    22    26    27   ar
    23     6     7    2
    24     7     8    1
    25     8     9    2
    26     9    10    1
    27    28    10    1
    28    28    29    1
    29    30    29    1
    30    30    31    1
    31    31    32    1
    32    32    33    1
    33    33    34    1
    34    34    35    1
    35    35    36    1
    36    10     2   am
    37    36    28    1
    38     9     4    1
    39    35    30    1
    40    27    12    1
    41    18    13   ar
    42    27    21   ar
@<TRIPOS>MOLECULE
*****
 36 42 0 0 0
SMALL
GASTEIGER

@<TRIPOS>ATOM
      1 O           0.8803    5.5978   20.2250 O.2     1  UNL1       -0.2501
      2 C           1.1650    4.4064   21.0909 C.2     1  UNL1        0.3310
      3 N           2.5236    3.9071   21.4846 N.am    1  UNL1       -0.1647
      4 C           2.3393    2.6973   22.3519 C.2     1  UNL1        0.0706
      5 C           3.3221    1.7898   23.0305 C.3     1  UNL1        0.0708
      6 C           2.8324    0.6338   23.8515 C.2     1  UNL1       -0.0163
      7 C           1.3600    0.3854   23.9939 C.2     1  UNL1       -0.0026
      8 C           0.3772    1.2930   23.3153 C.2     1  UNL1        0.0156
      9 C           0.8669    2.4489   22.4943 C.2     1  UNL1        0.0669
     10 N           0.1411    3.5052   21.7149 N.am    1  UNL1       -0.2409
     11 C           3.8152   -0.2738   24.5301 C.2     1  UNL1       -0.0038
     12 C           4.3596   -1.4676   23.8031 C.2     1  UNL1        0.0024
     13 C           3.8566   -1.6622   22.4034 C.ar    1  UNL1       -0.0004
     14 C           2.8849   -0.5873   22.0158 C.ar    1  UNL1       -0.0002
     15 C           2.2614   -0.5964   20.6516 C.ar    1  UNL1       -0.0000
     16 C           2.6096   -1.6804   19.6750 C.ar    1  UNL1       -0.0002
     17 C           3.5813   -2.7553   20.0626 C.ar    1  UNL1       -0.0007
     18 C           4.2048   -2.7462   21.4268 C.ar    1  UNL1        0.0212
     19 C           5.1420   -3.9032   21.6088 C.3     1  UNL1        0.2320
     20 O           5.9624   -4.2620   22.8121 O.3     1  UNL1       -0.4706
     21 C           6.0483   -3.5524   24.1309 C.ar    1  UNL1        0.1412
     22 C           6.9927   -4.2470   25.0665 C.ar    1  UNL1        0.0665
     23 C           7.2239   -3.6980   26.4432 C.ar    1  UNL1        0.1432
     24 F           8.1683   -4.3927   27.3789 F       1  UNL1       -0.2041
     25 C           6.5106   -2.4544   26.8842 C.ar    1  UNL1        0.0298
     26 C           5.5661   -1.7598   25.9486 C.ar    1  UNL1        0.0053
     27 C           5.3350   -2.3087   24.5720 C.ar    1  UNL1        0.0341
     28 C          -1.3472    3.6372   21.5828 C.3     1  UNL1        0.0987
     29 C          -2.1499    3.3660   20.3450 C.3     1  UNL1        0.0402
     30 C          -3.5929    3.6247   20.6625 C.3     1  UNL1        0.0891
     31 C          -4.8374    3.5235   19.8311 C.3     1  UNL1        0.1581
     32 O          -6.1708    3.8533   20.4337 O.3     1  UNL1       -0.3509
     33 C          -6.2600    4.2843   21.8677 C.3     1  UNL1        0.1595
     34 C          -5.0155    4.3855   22.6990 C.3     1  UNL1        0.1046
     35 N          -3.6820    4.0557   22.0964 N.3     1  UNL1       -0.2681
     36 C          -2.2941    4.0635   22.6653 C.3     1  UNL1        0.0927
@<TRIPOS>BOND
     1     1     2    2
     2     2     3    1
     3     3     4    2
     4     4     5    1
     5     5     6    1
     6     6    11    1
     7    11    12    2
     8    12    13    1
     9    13    14   ar
    10    14    15   ar
    11    15    16   ar
    12    16    17   ar
    13    17    18   ar
    14    18    19    1
    15    19    20    1
    16    20    21    1
    17    21    22   ar
    18    22    23   ar
    19    23    24    1
    20    23    25   ar
    21    25    26   ar
    22    26    27   ar
    23     6     7    2
    24     7     8    1
    25     8     9    2
    26     9    10    1
    27    28    10    1
    28    28    29    1
    29    30    29    1
    30    30    31    1
    31    31    32    1
    32    32    33    1
    33    33    34    1
    34    34    35    1
    35    35    36    1
    36    10     2   am
    37    36    28    1
    38     9     4    1
    39    35    30    1
    40    27    12    1
    41    18    13   ar
    42    27    21   ar
@<TRIPOS>MOLECULE
*****
 36 42 0 0 0
SMALL
GASTEIGER

@<TRIPOS>ATOM
      1 O           6.9183    1.9328   29.8927 O.2     1  UNL1       -0.2501
      2 C           5.4920    1.7522   29.4645 C.2     1  UNL1        0.3310
      3 N           4.5568    2.8420   29.0311 N.am    1  UNL1       -0.1647
      4 C           3.2375    2.2134   28.6934 C.2     1  UNL1        0.0706
      5 C           1.9425    2.7961   28.2102 C.3     1  UNL1        0.0708
      6 C           0.7673    1.9005   27.9518 C.2     1  UNL1       -0.0163
      7 C           0.8869    0.4223   28.1765 C.2     1  UNL1       -0.0026
      8 C           2.1820   -0.1604   28.6596 C.2     1  UNL1        0.0156
      9 C           3.3572    0.7351   28.9181 C.2     1  UNL1        0.0669
     10 N           4.7507    0.4501   29.3947 N.am    1  UNL1       -0.2409
     11 C          -0.5278    2.4832   27.4687 C.2     1  UNL1       -0.0038
     12 C          -0.7676    2.6626   25.9989 C.2     1  UNL1        0.0024
     13 C           0.3511    2.2277   25.0992 C.ar    1  UNL1       -0.0004
     14 C           1.5089    1.6884   25.8857 C.ar    1  UNL1       -0.0002
     15 C           2.7349    1.1974   25.1746 C.ar    1  UNL1       -0.0000
     16 C           2.8032    1.2457   23.6770 C.ar    1  UNL1       -0.0002
     17 C           1.6454    1.7850   22.8904 C.ar    1  UNL1       -0.0007
     18 C           0.4194    2.2760   23.6015 C.ar    1  UNL1        0.0212
     19 C          -0.6141    2.7712   22.6337 C.3     1  UNL1        0.2320
     20 O          -1.9712    3.3403   22.9244 O.3     1  UNL1       -0.4706
     21 C          -2.6298    3.5549   24.2549 C.ar    1  UNL1        0.1412
     22 C          -3.9972    4.1517   24.0996 C.ar    1  UNL1        0.0665
     23 C          -4.8289    4.4469   25.3125 C.ar    1  UNL1        0.1432
     24 F          -6.1963    5.0437   25.1571 F       1  UNL1       -0.2041
     25 C          -4.2933    4.1453   26.6807 C.ar    1  UNL1        0.0298
     26 C          -2.9259    3.5485   26.8361 C.ar    1  UNL1        0.0053
     27 C          -2.0942    3.2533   25.6232 C.ar    1  UNL1        0.0341
     28 C           5.3053   -0.8999   29.7407 C.3     1  UNL1        0.0987
     29 C           5.5746   -1.4144   31.1237 C.3     1  UNL1        0.0402
     30 C           6.1238   -2.8050   31.0021 C.3     1  UNL1        0.0891
     31 C           6.5691   -3.8017   32.0309 C.3     1  UNL1        0.1581
     32 O           7.0844   -5.1434   31.6014 O.3     1  UNL1       -0.3509
     33 C           7.1545   -5.4884   30.1433 C.3     1  UNL1        0.1595
     34 C           6.7091   -4.4916   29.1146 C.3     1  UNL1        0.1046
     35 N           6.1938   -3.1499   29.5441 N.3     1  UNL1       -0.2681
     36 C           5.6879   -1.9726   28.7643 C.3     1  UNL1        0.0927
@<TRIPOS>BOND
     1     1     2    2
     2     2     3    1
     3     3     4    2
     4     4     5    1
     5     5     6    1
     6     6    11    1
     7    11    12    2
     8    12    13    1
     9    13    14   ar
    10    14    15   ar
    11    15    16   ar
    12    16    17   ar
    13    17    18   ar
    14    18    19    1
    15    19    20    1
    16    20    21    1
    17    21    22   ar
    18    22    23   ar
    19    23    24    1
    20    23    25   ar
    21    25    26   ar
    22    26    27   ar
    23     6     7    2
    24     7     8    1
    25     8     9    2
    26     9    10    1
    27    28    10    1
    28    28    29    1
    29    30    29    1
    30    30    31    1
    31    31    32    1
    32    32    33    1
    33    33    34    1
    34    34    35    1
    35    35    36    1
    36    10     2   am
    37    36    28    1
    38     9     4    1
    39    35    30    1
    40    27    12    1
    41    18    13   ar
    42    27    21   ar
