@<TRIPOS>MOLECULE
*****
 42 45 0 0 0
SMALL
GASTEIGER

@<TRIPOS>ATOM
      1 C          -2.5300  -18.9498   21.5134 C.3     1  UNL1        0.2344
      2 N          -3.8130  -19.6520   21.1806 N.3     1  UNL1       -0.2401
      3 C          -3.8380  -20.6996   20.1073 C.3     1  UNL1        0.0753
      4 C          -5.1210  -21.4018   19.7745 C.3     1  UNL1        0.0175
      5 C          -6.3789  -21.0566   20.5149 C.3     1  UNL1        0.0031
      6 C          -6.3540  -20.0090   21.5883 C.3     1  UNL1        0.0205
      7 C          -5.0710  -19.3067   21.9212 C.3     1  UNL1        0.0756
      8 C          -7.6119  -19.6638   22.3288 C.3     1  UNL1        0.0277
      9 C          -8.7357  -18.9714   21.6162 C.ar    1  UNL1       -0.0220
     10 C          -9.8670  -19.7725   21.0433 C.ar    1  UNL1       -0.0020
     11 C         -10.9908  -19.0802   20.3307 C.ar    1  UNL1        0.0293
     12 C         -10.9832  -17.5868   20.1910 C.ar    1  UNL1        0.1401
     13 F         -12.1070  -16.8944   19.4784 F       1  UNL1       -0.2042
     14 C          -9.8518  -16.7857   20.7639 C.ar    1  UNL1        0.0293
     15 C          -8.7281  -17.4780   21.4765 C.ar    1  UNL1       -0.0020
     16 O          -1.2696  -19.3032   20.7808 O.3     1  UNL1       -0.4221
     17 C          -1.6100  -17.5372   17.2431 C.3     1  UNL1        0.1140
     18 N          -1.9706  -18.2602   18.5070 N.am    1  UNL1       -0.2689
     19 C          -0.9089  -18.5803   19.5170 C.2     1  UNL1        0.4028
     20 O           0.5135  -18.1775   19.2632 O.2     1  UNL1       -0.2264
     21 H          -2.9042  -18.5245   18.6736 H       1  UNL1        0.1528
     22 C          -2.5074  -17.8941   22.5788 C.3     1  UNL1        0.0810
     23 C          -2.4566  -16.4444   22.1972 C.3     1  UNL1        0.0782
     24 C          -1.3196  -15.9266   21.3671 C.3     1  UNL1        0.0215
     25 N          -3.5430  -15.5123   22.6456 N.am    1  UNL1       -0.2902
     26 C          -4.6068  -15.9974   23.5853 C.2     1  UNL1        0.3044
     27 O          -4.5843  -17.4145   24.0766 O.2     1  UNL1       -0.2525
     28 N          -5.6932  -15.0653   24.0338 N.am    1  UNL1       -0.2683
     29 H          -3.5578  -14.5822   22.3232 H       1  UNL1        0.1509
     30 H          -5.7080  -14.1352   23.7113 H       1  UNL1        0.1564
     31 C          -6.7570  -15.5504   24.9735 C.ar    1  UNL1        0.0517
     32 C          -6.7811  -15.0666   26.3931 C.ar    1  UNL1        0.0147
     33 C          -7.8450  -15.5516   27.3327 C.ar    1  UNL1        0.0014
     34 C          -8.8847  -16.5205   26.8528 C.ar    1  UNL1        0.0032
     35 C          -8.8606  -17.0042   25.4332 C.ar    1  UNL1        0.0386
     36 C          -7.7968  -16.5192   24.4935 C.ar    1  UNL1        0.0178
     37 C          -9.9003  -17.9730   24.9532 C.ar    1  UNL1        0.1839
     38 N          -9.9470  -19.4404   25.2607 N.ar    1  UNL1       -0.1081
     39 N         -11.1514  -20.0189   24.5790 N.ar    1  UNL1       -0.0227
     40 N         -11.8492  -18.9090   23.8501 N.ar    1  UNL1       -0.0429
     41 N         -11.0759  -17.6446   24.0814 N.ar    1  UNL1       -0.2113
     42 C         -11.4183  -16.2896   23.5365 C.3     1  UNL1        0.1573
@<TRIPOS>BOND
     1    17    18    1
     2    18    19   am
     3    19    20    2
     4    19    16    1
     5    16     1    1
     6     1    22    1
     7    22    23    1
     8    23    24    1
     9    23    25    1
    10    25    26   am
    11    26    27    2
    12    26    28   am
    13    28    31    1
    14    31    32   ar
    15    32    33   ar
    16    33    34   ar
    17    34    35   ar
    18    35    37    1
    19    37    38   ar
    20    38    39   ar
    21    39    40   ar
    22    40    41   ar
    23    41    42    1
    24    35    36   ar
    25     1     2    1
    26     2     3    1
    27     3     4    1
    28     4     5    1
    29     5     6    1
    30     6     8    1
    31     8     9    1
    32     9    10   ar
    33    10    11   ar
    34    11    12   ar
    35    12    13    1
    36    12    14   ar
    37    14    15   ar
    38     6     7    1
    39    36    31   ar
    40     7     2    1
    41    41    37   ar
    42    15     9   ar
    43    18    21    1
    44    25    29    1
    45    28    30    1
@<TRIPOS>MOLECULE
*****
 42 45 0 0 0
SMALL
GASTEIGER

@<TRIPOS>ATOM
      1 C          -2.3459  -17.6910   20.0748 C.3     1  UNL1        0.2344
      2 N          -3.4082  -18.7500   20.0665 N.3     1  UNL1       -0.2401
      3 C          -3.0306  -20.1925   20.2295 C.3     1  UNL1        0.0753
      4 C          -4.0930  -21.2514   20.2213 C.3     1  UNL1        0.0175
      5 C          -5.5329  -20.8678   20.0500 C.3     1  UNL1        0.0031
      6 C          -5.9106  -19.4253   19.8871 C.3     1  UNL1        0.0205
      7 C          -4.8482  -18.3664   19.8953 C.3     1  UNL1        0.0756
      8 C          -7.3506  -19.0417   19.7158 C.3     1  UNL1        0.0277
      9 C          -8.3564  -19.4172   20.7634 C.ar    1  UNL1       -0.0220
     10 C          -9.8000  -19.5832   20.3916 C.ar    1  UNL1       -0.0020
     11 C         -10.8059  -19.9587   21.4392 C.ar    1  UNL1        0.0293
     12 C         -10.3681  -20.1681   22.8584 C.ar    1  UNL1        0.1401
     13 F         -11.3739  -20.5436   23.9060 F       1  UNL1       -0.2042
     14 C          -8.9244  -20.0021   23.2302 C.ar    1  UNL1        0.0293
     15 C          -7.9186  -19.6267   22.1827 C.ar    1  UNL1       -0.0020
     16 O          -1.1705  -17.8006   19.1492 O.3     1  UNL1       -0.4221
     17 C           2.3852  -17.4310   20.8725 C.3     1  UNL1        0.1140
     18 N           1.0312  -17.0845   20.3278 N.am    1  UNL1       -0.2689
     19 C           0.1834  -18.1472   19.6939 C.2     1  UNL1        0.4028
     20 O           0.6894  -19.5564   19.6047 O.2     1  UNL1       -0.2264
     21 H           0.6991  -16.1596   20.3863 H       1  UNL1        0.1528
     22 C          -2.4588  -16.5226   21.0086 C.3     1  UNL1        0.0810
     23 C          -2.7703  -16.7486   22.4584 C.3     1  UNL1        0.0782
     24 C          -2.0485  -17.8185   23.2227 C.3     1  UNL1        0.0215
     25 N          -3.8035  -15.9046   23.1439 N.am    1  UNL1       -0.2902
     26 C          -5.2148  -16.3982   23.2658 C.2     1  UNL1        0.3044
     27 O          -5.5927  -17.7360   22.7021 O.2     1  UNL1       -0.2525
     28 N          -6.2480  -15.5542   23.9513 N.am    1  UNL1       -0.2683
     29 H          -3.5555  -15.0266   23.5138 H       1  UNL1        0.1509
     30 H          -6.0000  -14.6762   24.3212 H       1  UNL1        0.1564
     31 C          -7.6593  -16.0479   24.0732 C.ar    1  UNL1        0.0517
     32 C          -8.1435  -16.6220   25.3716 C.ar    1  UNL1        0.0147
     33 C          -9.5546  -17.1157   25.4934 C.ar    1  UNL1        0.0014
     34 C         -10.4816  -17.0352   24.3168 C.ar    1  UNL1        0.0032
     35 C          -9.9974  -16.4611   23.0184 C.ar    1  UNL1        0.0386
     36 C          -8.5862  -15.9675   22.8966 C.ar    1  UNL1        0.0178
     37 C         -10.9243  -16.3807   21.8419 C.ar    1  UNL1        0.1839
     38 N         -10.5854  -15.8297   20.4885 N.ar    1  UNL1       -0.1081
     39 N         -11.8046  -15.9456   19.6223 N.ar    1  UNL1       -0.0227
     40 N         -12.8969  -16.5682   20.4403 N.ar    1  UNL1       -0.0429
     41 N         -12.3529  -16.8371   21.8121 N.ar    1  UNL1       -0.2113
     42 C         -13.1053  -17.4541   22.9536 C.3     1  UNL1        0.1573
@<TRIPOS>BOND
     1    17    18    1
     2    18    19   am
     3    19    20    2
     4    19    16    1
     5    16     1    1
     6     1    22    1
     7    22    23    1
     8    23    24    1
     9    23    25    1
    10    25    26   am
    11    26    27    2
    12    26    28   am
    13    28    31    1
    14    31    32   ar
    15    32    33   ar
    16    33    34   ar
    17    34    35   ar
    18    35    37    1
    19    37    38   ar
    20    38    39   ar
    21    39    40   ar
    22    40    41   ar
    23    41    42    1
    24    35    36   ar
    25     1     2    1
    26     2     3    1
    27     3     4    1
    28     4     5    1
    29     5     6    1
    30     6     8    1
    31     8     9    1
    32     9    10   ar
    33    10    11   ar
    34    11    12   ar
    35    12    13    1
    36    12    14   ar
    37    14    15   ar
    38     6     7    1
    39    36    31   ar
    40     7     2    1
    41    41    37   ar
    42    15     9   ar
    43    18    21    1
    44    25    29    1
    45    28    30    1
@<TRIPOS>MOLECULE
*****
 42 45 0 0 0
SMALL
GASTEIGER

@<TRIPOS>ATOM
      1 C          -3.6413  -16.8514   22.7588 C.3     1  UNL1        0.2344
      2 N          -4.1104  -18.1714   22.2225 N.3     1  UNL1       -0.2401
      3 C          -3.1783  -19.0278   21.4177 C.3     1  UNL1        0.0753
      4 C          -3.6474  -20.3478   20.8813 C.3     1  UNL1        0.0175
      5 C          -5.0484  -20.8114   21.1498 C.3     1  UNL1        0.0031
      6 C          -5.9805  -19.9549   21.9547 C.3     1  UNL1        0.0205
      7 C          -5.5115  -18.6349   22.4910 C.3     1  UNL1        0.0756
      8 C          -7.3816  -20.4185   22.2232 C.3     1  UNL1        0.0277
      9 C          -8.4857  -20.0578   21.2741 C.ar    1  UNL1       -0.0220
     10 C          -8.1611  -19.6312   19.8731 C.ar    1  UNL1       -0.0020
     11 C          -9.2653  -19.2706   18.9240 C.ar    1  UNL1        0.0293
     12 C         -10.6941  -19.3366   19.3758 C.ar    1  UNL1        0.1401
     13 F         -11.7982  -18.9760   18.4267 F       1  UNL1       -0.2042
     14 C         -11.0187  -19.7632   20.7768 C.ar    1  UNL1        0.0293
     15 C          -9.9145  -20.1238   21.7259 C.ar    1  UNL1       -0.0020
     16 O          -2.7510  -15.9772   21.9262 O.3     1  UNL1       -0.4221
     17 C           0.1786  -17.6060   19.8016 C.3     1  UNL1        0.1140
     18 N          -0.5785  -17.0214   20.9572 N.am    1  UNL1       -0.2689
     19 C          -1.9940  -16.5617   20.7707 C.2     1  UNL1        0.4028
     20 O          -2.6526  -16.6864   19.4288 O.2     1  UNL1       -0.2264
     21 H          -0.1463  -16.9396   21.8379 H       1  UNL1        0.1528
     22 C          -4.0626  -16.4057   24.1277 C.3     1  UNL1        0.0810
     23 C          -5.2922  -15.5635   24.2969 C.3     1  UNL1        0.0782
     24 C          -5.7485  -15.1698   25.6705 C.3     1  UNL1        0.0215
     25 N          -6.0657  -15.1150   23.0925 N.am    1  UNL1       -0.2902
     26 C          -7.4655  -15.6078   22.8738 C.2     1  UNL1        0.3044
     27 O          -8.0918  -16.5491   23.8595 O.2     1  UNL1       -0.2525
     28 N          -8.2389  -15.1593   21.6694 N.am    1  UNL1       -0.2683
     29 H          -5.6546  -14.4972   22.4456 H       1  UNL1        0.1509
     30 H          -7.8278  -14.5414   21.0225 H       1  UNL1        0.1564
     31 C          -9.6387  -15.6521   21.4507 C.ar    1  UNL1        0.0517
     32 C         -10.3149  -15.4284   20.1306 C.ar    1  UNL1        0.0147
     33 C         -11.7146  -15.9212   19.9119 C.ar    1  UNL1        0.0014
     34 C         -12.4382  -16.6376   21.0134 C.ar    1  UNL1        0.0032
     35 C         -11.7620  -16.8613   22.3335 C.ar    1  UNL1        0.0386
     36 C         -10.3623  -16.3685   22.5522 C.ar    1  UNL1        0.0178
     37 C         -12.4856  -17.5777   23.4350 C.ar    1  UNL1        0.1839
     38 N         -13.9710  -17.6052   23.6420 N.ar    1  UNL1       -0.1081
     39 N         -14.2542  -18.4369   24.8578 N.ar    1  UNL1       -0.0227
     40 N         -12.9439  -18.9233   25.4022 N.ar    1  UNL1       -0.0429
     41 N         -11.8508  -18.3923   24.5228 N.ar    1  UNL1       -0.2113
     42 C         -10.3810  -18.6335   24.7003 C.3     1  UNL1        0.1573
@<TRIPOS>BOND
     1    17    18    1
     2    18    19   am
     3    19    20    2
     4    19    16    1
     5    16     1    1
     6     1    22    1
     7    22    23    1
     8    23    24    1
     9    23    25    1
    10    25    26   am
    11    26    27    2
    12    26    28   am
    13    28    31    1
    14    31    32   ar
    15    32    33   ar
    16    33    34   ar
    17    34    35   ar
    18    35    37    1
    19    37    38   ar
    20    38    39   ar
    21    39    40   ar
    22    40    41   ar
    23    41    42    1
    24    35    36   ar
    25     1     2    1
    26     2     3    1
    27     3     4    1
    28     4     5    1
    29     5     6    1
    30     6     8    1
    31     8     9    1
    32     9    10   ar
    33    10    11   ar
    34    11    12   ar
    35    12    13    1
    36    12    14   ar
    37    14    15   ar
    38     6     7    1
    39    36    31   ar
    40     7     2    1
    41    41    37   ar
    42    15     9   ar
    43    18    21    1
    44    25    29    1
    45    28    30    1
@<TRIPOS>MOLECULE
*****
 42 45 0 0 0
SMALL
GASTEIGER

@<TRIPOS>ATOM
      1 C           6.8401   -3.3542   24.3345 C.3     1  UNL1        0.2344
      2 N           6.7200   -3.3944   22.8399 N.3     1  UNL1       -0.2401
      3 C           7.9536   -3.4737   21.9902 C.3     1  UNL1        0.0753
      4 C           7.8335   -3.5140   20.4956 C.3     1  UNL1        0.0175
      5 C           6.4798   -3.4748   19.8506 C.3     1  UNL1        0.0031
      6 C           5.2462   -3.3954   20.7003 C.3     1  UNL1        0.0205
      7 C           5.3662   -3.3552   22.1949 C.3     1  UNL1        0.0756
      8 C           3.8925   -3.3563   20.0553 C.3     1  UNL1        0.0277
      9 C           3.3361   -2.0552   19.5577 C.ar    1  UNL1       -0.0220
     10 C           3.8023   -1.4921   18.2479 C.ar    1  UNL1       -0.0020
     11 C           3.2460   -0.1910   17.7503 C.ar    1  UNL1        0.0293
     12 C           2.2234    0.5470   18.5625 C.ar    1  UNL1        0.1401
     13 F           1.6670    1.8481   18.0649 F       1  UNL1       -0.2042
     14 C           1.7572   -0.0161   19.8723 C.ar    1  UNL1        0.0293
     15 C           2.3136   -1.3172   20.3699 C.ar    1  UNL1       -0.0020
     16 O           6.8566   -2.0361   25.0504 O.3     1  UNL1       -0.4221
     17 C           3.5278   -1.4233   27.1225 C.3     1  UNL1        0.1140
     18 N           4.8132   -2.0390   26.6549 N.am    1  UNL1       -0.2689
     19 C           5.5712   -1.4204   25.5179 C.2     1  UNL1        0.4028
     20 O           5.0437   -0.1861   24.8485 O.2     1  UNL1       -0.2264
     21 H           5.1595   -2.8491   27.0943 H       1  UNL1        0.1528
     22 C           6.9437   -4.6319   25.1133 C.3     1  UNL1        0.0810
     23 C           7.9793   -4.7727   26.1892 C.3     1  UNL1        0.0782
     24 C           8.8489   -5.9939   26.2380 C.3     1  UNL1        0.0215
     25 N           8.1453   -3.6922   27.2163 N.am    1  UNL1       -0.2902
     26 C           7.1658   -3.5746   28.3463 C.2     1  UNL1        0.3044
     27 O           6.0202   -4.5375   28.4490 O.2     1  UNL1       -0.2525
     28 N           7.3318   -2.4941   29.3734 N.am    1  UNL1       -0.2683
     29 H           8.8972   -3.0603   27.1489 H       1  UNL1        0.1509
     30 H           8.0837   -1.8622   29.3059 H       1  UNL1        0.1564
     31 C           6.3523   -2.3765   30.5033 C.ar    1  UNL1        0.0517
     32 C           6.5255   -3.2131   31.7362 C.ar    1  UNL1        0.0147
     33 C           5.5459   -3.0954   32.8661 C.ar    1  UNL1        0.0014
     34 C           4.3932   -2.1412   32.7630 C.ar    1  UNL1        0.0032
     35 C           4.2200   -1.3046   31.5301 C.ar    1  UNL1        0.0386
     36 C           5.1995   -1.4223   30.4003 C.ar    1  UNL1        0.0178
     37 C           3.0673   -0.3503   31.4271 C.ar    1  UNL1        0.1839
     38 N           1.9844   -0.3845   30.3897 N.ar    1  UNL1       -0.1081
     39 N           1.0429    0.7503   30.6648 N.ar    1  UNL1       -0.0227
     40 N           1.5438    1.4859   31.8723 N.ar    1  UNL1       -0.0429
     41 N           2.7949    0.8056   32.3434 N.ar    1  UNL1       -0.2113
     42 C           3.6276    1.2103   33.5236 C.3     1  UNL1        0.1573
@<TRIPOS>BOND
     1    17    18    1
     2    18    19   am
     3    19    20    2
     4    19    16    1
     5    16     1    1
     6     1    22    1
     7    22    23    1
     8    23    24    1
     9    23    25    1
    10    25    26   am
    11    26    27    2
    12    26    28   am
    13    28    31    1
    14    31    32   ar
    15    32    33   ar
    16    33    34   ar
    17    34    35   ar
    18    35    37    1
    19    37    38   ar
    20    38    39   ar
    21    39    40   ar
    22    40    41   ar
    23    41    42    1
    24    35    36   ar
    25     1     2    1
    26     2     3    1
    27     3     4    1
    28     4     5    1
    29     5     6    1
    30     6     8    1
    31     8     9    1
    32     9    10   ar
    33    10    11   ar
    34    11    12   ar
    35    12    13    1
    36    12    14   ar
    37    14    15   ar
    38     6     7    1
    39    36    31   ar
    40     7     2    1
    41    41    37   ar
    42    15     9   ar
    43    18    21    1
    44    25    29    1
    45    28    30    1
@<TRIPOS>MOLECULE
*****
 42 45 0 0 0
SMALL
GASTEIGER

@<TRIPOS>ATOM
      1 C           7.2227   -4.3203   22.5541 C.3     1  UNL1        0.2344
      2 N           7.3435   -3.6113   21.2377 N.3     1  UNL1       -0.2401
      3 C           8.6626   -3.0372   20.8133 C.3     1  UNL1        0.0753
      4 C           8.7834   -2.3282   19.4970 C.3     1  UNL1        0.0175
      5 C           7.5849   -2.1932   18.6051 C.3     1  UNL1        0.0031
      6 C           6.2657   -2.7673   19.0295 C.3     1  UNL1        0.0205
      7 C           6.1449   -3.4763   20.3458 C.3     1  UNL1        0.0756
      8 C           5.0672   -2.6324   18.1376 C.3     1  UNL1        0.0277
      9 C           3.9457   -1.7136   18.5223 C.ar    1  UNL1       -0.0220
     10 C           3.6792   -0.4770   17.7162 C.ar    1  UNL1       -0.0020
     11 C           2.5576    0.4417   18.1009 C.ar    1  UNL1        0.0293
     12 C           1.7026    0.1239   19.2916 C.ar    1  UNL1        0.1401
     13 F           0.5810    1.0427   19.6763 F       1  UNL1       -0.2042
     14 C           1.9691   -1.1127   20.0977 C.ar    1  UNL1        0.0293
     15 C           3.0907   -2.0314   19.7130 C.ar    1  UNL1       -0.0020
     16 O           5.8924   -4.4028   23.2423 O.3     1  UNL1       -0.4221
     17 C           5.2423   -1.7152   26.0890 C.3     1  UNL1        0.1140
     18 N           5.7885   -2.9111   25.3668 N.am    1  UNL1       -0.2689
     19 C           5.3462   -3.2070   23.9644 C.2     1  UNL1        0.4028
     20 O           4.3576   -2.3070   23.2842 O.2     1  UNL1       -0.2264
     21 H           6.4374   -3.5018   25.8132 H       1  UNL1        0.1528
     22 C           8.4322   -4.9468   23.1822 C.3     1  UNL1        0.0810
     23 C           8.2979   -6.2229   23.9590 C.3     1  UNL1        0.0782
     24 C           9.1936   -7.3861   23.6512 C.3     1  UNL1        0.0215
     25 N           7.2680   -6.3359   25.0436 N.am    1  UNL1       -0.2902
     26 C           7.5439   -5.7637   26.4025 C.2     1  UNL1        0.3044
     27 O           8.8498   -5.0787   26.6767 O.2     1  UNL1       -0.2525
     28 N           6.5140   -5.8767   27.4871 N.am    1  UNL1       -0.2683
     29 H           6.4109   -6.7855   24.8636 H       1  UNL1        0.1509
     30 H           5.6568   -6.3263   27.3071 H       1  UNL1        0.1564
     31 C           6.7899   -5.3046   28.8460 C.ar    1  UNL1        0.0517
     32 C           7.4411   -6.1520   29.8985 C.ar    1  UNL1        0.0147
     33 C           7.7170   -5.5798   31.2573 C.ar    1  UNL1        0.0014
     34 C           7.3417   -4.1603   31.5637 C.ar    1  UNL1        0.0032
     35 C           6.6905   -3.3128   30.5112 C.ar    1  UNL1        0.0386
     36 C           6.4146   -3.8850   29.1524 C.ar    1  UNL1        0.0178
     37 C           6.3151   -1.8932   30.8176 C.ar    1  UNL1        0.1839
     38 N           6.8909   -0.6694   30.1691 N.ar    1  UNL1       -0.1081
     39 N           6.2298    0.5320   30.7770 N.ar    1  UNL1       -0.0227
     40 N           5.2453    0.0507   31.8013 N.ar    1  UNL1       -0.0429
     41 N           5.2981   -1.4482   31.8264 N.ar    1  UNL1       -0.2113
     42 C           4.4777   -2.3447   32.7058 C.3     1  UNL1        0.1573
@<TRIPOS>BOND
     1    17    18    1
     2    18    19   am
     3    19    20    2
     4    19    16    1
     5    16     1    1
     6     1    22    1
     7    22    23    1
     8    23    24    1
     9    23    25    1
    10    25    26   am
    11    26    27    2
    12    26    28   am
    13    28    31    1
    14    31    32   ar
    15    32    33   ar
    16    33    34   ar
    17    34    35   ar
    18    35    37    1
    19    37    38   ar
    20    38    39   ar
    21    39    40   ar
    22    40    41   ar
    23    41    42    1
    24    35    36   ar
    25     1     2    1
    26     2     3    1
    27     3     4    1
    28     4     5    1
    29     5     6    1
    30     6     8    1
    31     8     9    1
    32     9    10   ar
    33    10    11   ar
    34    11    12   ar
    35    12    13    1
    36    12    14   ar
    37    14    15   ar
    38     6     7    1
    39    36    31   ar
    40     7     2    1
    41    41    37   ar
    42    15     9   ar
    43    18    21    1
    44    25    29    1
    45    28    30    1
@<TRIPOS>MOLECULE
*****
 42 45 0 0 0
SMALL
GASTEIGER

@<TRIPOS>ATOM
      1 C           2.4155    3.3651   36.1012 C.3     1  UNL1        0.2344
      2 N           1.7869    3.4740   34.7436 N.3     1  UNL1       -0.2401
      3 C           0.9349    4.6610   34.4046 C.3     1  UNL1        0.0753
      4 C           0.3064    4.7699   33.0470 C.3     1  UNL1        0.0175
      5 C           0.5299    3.6917   32.0284 C.3     1  UNL1        0.0031
      6 C           1.3819    2.5046   32.3673 C.3     1  UNL1        0.0205
      7 C           2.0105    2.3958   33.7249 C.3     1  UNL1        0.0756
      8 C           1.6054    1.4265   31.3487 C.3     1  UNL1        0.0277
      9 C           0.9739    1.5335   29.9924 C.ar    1  UNL1       -0.0220
     10 C          -0.3152    0.8216   29.7070 C.ar    1  UNL1       -0.0020
     11 C          -0.9467    0.9287   28.3506 C.ar    1  UNL1        0.0293
     12 C          -0.2893    1.7476   27.2797 C.ar    1  UNL1        0.1401
     13 F          -0.9209    1.8547   25.9234 F       1  UNL1       -0.2042
     14 C           0.9997    2.4596   27.5651 C.ar    1  UNL1        0.0293
     15 C           1.6313    2.3525   28.9214 C.ar    1  UNL1       -0.0020
     16 O           1.5595    3.4294   37.3313 O.3     1  UNL1       -0.4221
     17 C           1.3269    0.1730   39.5877 C.3     1  UNL1        0.1140
     18 N           1.0956    1.1367   38.4617 N.am    1  UNL1       -0.2689
     19 C           1.7908    2.4658   38.4573 C.2     1  UNL1        0.4028
     20 O           2.7175    2.8313   39.5788 O.2     1  UNL1       -0.2264
     21 H           0.4874    0.8969   37.7256 H       1  UNL1        0.1528
     22 C           3.9000    3.1919   36.2287 C.3     1  UNL1        0.0810
     23 C           4.4676    1.8667   36.6428 C.3     1  UNL1        0.0782
     24 C           5.4802    1.7966   37.7471 C.3     1  UNL1        0.0215
     25 N           4.0227    0.6115   35.9525 N.am    1  UNL1       -0.2902
     26 C           4.6525    0.2069   34.6525 C.2     1  UNL1        0.3044
     27 O           5.7271    1.0575   34.0430 O.2     1  UNL1       -0.2525
     28 N           4.2075   -1.0483   33.9622 N.am    1  UNL1       -0.2683
     29 H           3.3173    0.0532   36.3525 H       1  UNL1        0.1509
     30 H           3.5022   -1.6066   34.3623 H       1  UNL1        0.1564
     31 C           4.8373   -1.4529   32.6623 C.ar    1  UNL1        0.0517
     32 C           5.9779   -2.4270   32.6526 C.ar    1  UNL1        0.0147
     33 C           6.6076   -2.8316   31.3527 C.ar    1  UNL1        0.0014
     34 C           6.0967   -2.2621   30.0625 C.ar    1  UNL1        0.0032
     35 C           4.9561   -1.2880   30.0722 C.ar    1  UNL1        0.0386
     36 C           4.3264   -0.8834   31.3721 C.ar    1  UNL1        0.0178
     37 C           4.4453   -0.7185   28.7820 C.ar    1  UNL1        0.1839
     38 N           3.2493   -1.2025   28.0168 N.ar    1  UNL1       -0.1081
     39 N           3.1055   -0.3481   26.7923 N.ar    1  UNL1       -0.0227
     40 N           4.2126    0.6640   26.8007 N.ar    1  UNL1       -0.0429
     41 N           5.0406    0.4351   28.0304 N.ar    1  UNL1       -0.2113
     42 C           6.2513    1.2217   28.4371 C.3     1  UNL1        0.1573
@<TRIPOS>BOND
     1    17    18    1
     2    18    19   am
     3    19    20    2
     4    19    16    1
     5    16     1    1
     6     1    22    1
     7    22    23    1
     8    23    24    1
     9    23    25    1
    10    25    26   am
    11    26    27    2
    12    26    28   am
    13    28    31    1
    14    31    32   ar
    15    32    33   ar
    16    33    34   ar
    17    34    35   ar
    18    35    37    1
    19    37    38   ar
    20    38    39   ar
    21    39    40   ar
    22    40    41   ar
    23    41    42    1
    24    35    36   ar
    25     1     2    1
    26     2     3    1
    27     3     4    1
    28     4     5    1
    29     5     6    1
    30     6     8    1
    31     8     9    1
    32     9    10   ar
    33    10    11   ar
    34    11    12   ar
    35    12    13    1
    36    12    14   ar
    37    14    15   ar
    38     6     7    1
    39    36    31   ar
    40     7     2    1
    41    41    37   ar
    42    15     9   ar
    43    18    21    1
    44    25    29    1
    45    28    30    1
@<TRIPOS>MOLECULE
*****
 42 45 0 0 0
SMALL
GASTEIGER

@<TRIPOS>ATOM
      1 C           0.2648    3.5456   18.3130 C.3     1  UNL1        0.2344
      2 N           0.6115    2.2399   18.9648 N.3     1  UNL1       -0.2401
      3 C          -0.1790    1.7574   20.1447 C.3     1  UNL1        0.0753
      4 C           0.1677    0.4517   20.7965 C.3     1  UNL1        0.0175
      5 C           1.3049   -0.3715   20.2685 C.3     1  UNL1        0.0031
      6 C           2.0955    0.1110   19.0885 C.3     1  UNL1        0.0205
      7 C           1.7488    1.4167   18.4367 C.3     1  UNL1        0.0756
      8 C           3.2328   -0.7123   18.5604 C.3     1  UNL1        0.0277
      9 C           3.9948   -1.6176   19.4823 C.ar    1  UNL1       -0.0220
     10 C           3.6710   -3.0813   19.5329 C.ar    1  UNL1       -0.0020
     11 C           4.4330   -3.9866   20.4547 C.ar    1  UNL1        0.0293
     12 C           5.5188   -3.4281   21.3260 C.ar    1  UNL1        0.1401
     13 F           6.2808   -4.3334   22.2479 F       1  UNL1       -0.2042
     14 C           5.8425   -1.9644   21.2754 C.ar    1  UNL1        0.0293
     15 C           5.0805   -1.0591   20.3535 C.ar    1  UNL1       -0.0020
     16 O           1.0188    4.7899   18.6784 O.3     1  UNL1       -0.4221
     17 C           2.5446    5.3236   22.3029 C.3     1  UNL1        0.1140
     18 N           2.4173    4.9190   20.8641 N.am    1  UNL1       -0.2689
     19 C           1.1461    5.1945   20.1171 C.2     1  UNL1        0.4028
     20 O           0.0020    5.8746   20.8090 O.2     1  UNL1       -0.2264
     21 H           3.1682    4.4726   20.4100 H       1  UNL1        0.1528
     22 C          -0.8360    3.6072   17.2959 C.3     1  UNL1        0.0810
     23 C          -2.1715    4.1787   17.6697 C.3     1  UNL1        0.0782
     24 C          -3.3771    3.8799   16.8288 C.3     1  UNL1        0.0215
     25 N          -2.3014    5.0490   18.8845 N.am    1  UNL1       -0.2902
     26 C          -2.9607    4.5160   20.1220 C.2     1  UNL1        0.3044
     27 O          -3.4901    3.1127   20.1446 O.2     1  UNL1       -0.2525
     28 N          -3.0907    5.3863   21.3367 N.am    1  UNL1       -0.2683
     29 H          -1.9540    5.9700   18.8696 H       1  UNL1        0.1509
     30 H          -2.7432    6.3073   21.3218 H       1  UNL1        0.1564
     31 C          -3.7500    4.8533   22.5742 C.ar    1  UNL1        0.0517
     32 C          -2.9760    3.9857   23.5220 C.ar    1  UNL1        0.0147
     33 C          -3.6353    3.4528   24.7594 C.ar    1  UNL1        0.0014
     34 C          -5.0686    3.7874   25.0490 C.ar    1  UNL1        0.0032
     35 C          -5.8425    4.6549   24.1012 C.ar    1  UNL1        0.0386
     36 C          -5.1832    5.1879   22.8638 C.ar    1  UNL1        0.0178
     37 C          -7.2757    4.9895   24.3909 C.ar    1  UNL1        0.1839
     38 N          -8.4741    4.4015   23.7066 N.ar    1  UNL1       -0.1081
     39 N          -9.7012    5.0194   24.3084 N.ar    1  UNL1       -0.0227
     40 N          -9.2613    5.9894   25.3647 N.ar    1  UNL1       -0.0429
     41 N          -7.7623    5.9709   25.4156 N.ar    1  UNL1       -0.2113
     42 C          -6.9011    6.7900   26.3307 C.3     1  UNL1        0.1573
@<TRIPOS>BOND
     1    17    18    1
     2    18    19   am
     3    19    20    2
     4    19    16    1
     5    16     1    1
     6     1    22    1
     7    22    23    1
     8    23    24    1
     9    23    25    1
    10    25    26   am
    11    26    27    2
    12    26    28   am
    13    28    31    1
    14    31    32   ar
    15    32    33   ar
    16    33    34   ar
    17    34    35   ar
    18    35    37    1
    19    37    38   ar
    20    38    39   ar
    21    39    40   ar
    22    40    41   ar
    23    41    42    1
    24    35    36   ar
    25     1     2    1
    26     2     3    1
    27     3     4    1
    28     4     5    1
    29     5     6    1
    30     6     8    1
    31     8     9    1
    32     9    10   ar
    33    10    11   ar
    34    11    12   ar
    35    12    13    1
    36    12    14   ar
    37    14    15   ar
    38     6     7    1
    39    36    31   ar
    40     7     2    1
    41    41    37   ar
    42    15     9   ar
    43    18    21    1
    44    25    29    1
    45    28    30    1
@<TRIPOS>MOLECULE
*****
 42 45 0 0 0
SMALL
GASTEIGER

@<TRIPOS>ATOM
      1 C          -0.1706    2.7019   21.4964 C.3     1  UNL1        0.2344
      2 N           1.1016    2.5447   20.7175 N.3     1  UNL1       -0.2401
      3 C           2.1994    3.5566   20.8620 C.3     1  UNL1        0.0753
      4 C           3.4716    3.3995   20.0830 C.3     1  UNL1        0.0175
      5 C           3.6461    2.2304   19.1596 C.3     1  UNL1        0.0031
      6 C           2.5483    1.2184   19.0150 C.3     1  UNL1        0.0205
      7 C           1.2760    1.3756   19.7940 C.3     1  UNL1        0.0756
      8 C           2.7227    0.0494   18.0915 C.3     1  UNL1        0.0277
      9 C           3.5612   -1.1208   18.5131 C.ar    1  UNL1       -0.0220
     10 C           2.9729   -2.1894   19.3859 C.ar    1  UNL1       -0.0020
     11 C           3.8114   -3.3595   19.8074 C.ar    1  UNL1        0.0293
     12 C           5.2382   -3.4611   19.3561 C.ar    1  UNL1        0.1401
     13 F           6.0767   -4.6312   19.7776 F       1  UNL1       -0.2042
     14 C           5.8266   -2.3925   18.4832 C.ar    1  UNL1        0.0293
     15 C           4.9881   -1.2223   18.0617 C.ar    1  UNL1       -0.0020
     16 O          -1.4925    2.4564   20.8312 O.3     1  UNL1       -0.4221
     17 C          -2.3624    5.0549   17.9604 C.3     1  UNL1        0.1140
     18 N          -1.6846    3.9484   18.7130 N.am    1  UNL1       -0.2689
     19 C          -2.1704    3.5629   20.0787 C.2     1  UNL1        0.4028
     20 O          -3.3340    4.2838   20.6920 O.2     1  UNL1       -0.2264
     21 H          -0.9208    3.4752   18.3104 H       1  UNL1        0.1528
     22 C          -0.1210    3.1044   22.9405 C.3     1  UNL1        0.0810
     23 C           0.4722    2.1756   23.9581 C.3     1  UNL1        0.0782
     24 C           0.6531    2.6326   25.3752 C.3     1  UNL1        0.0215
     25 N           0.8843    0.7899   23.5585 N.am    1  UNL1       -0.2902
     26 C           2.3300    0.4816   23.3035 C.2     1  UNL1        0.3044
     27 O           3.3635    1.5591   23.4480 O.2     1  UNL1       -0.2525
     28 N           2.7422   -0.9042   22.9039 N.am    1  UNL1       -0.2683
     29 H           0.2060    0.0827   23.4636 H       1  UNL1        0.1509
     30 H           2.0639   -1.6114   22.8090 H       1  UNL1        0.1564
     31 C           4.1879   -1.2125   22.6489 C.ar    1  UNL1        0.0517
     32 C           5.0280   -0.2611   21.8494 C.ar    1  UNL1        0.0147
     33 C           6.4736   -0.5695   21.5944 C.ar    1  UNL1        0.0014
     34 C           7.0792   -1.8291   22.1389 C.ar    1  UNL1        0.0032
     35 C           6.2391   -2.7805   22.9384 C.ar    1  UNL1        0.0386
     36 C           4.7935   -2.4722   23.1934 C.ar    1  UNL1        0.0178
     37 C           6.8447   -4.0402   23.4828 C.ar    1  UNL1        0.1839
     38 N           7.3951   -5.1759   22.6722 N.ar    1  UNL1       -0.1081
     39 N           7.8968   -6.2230   23.6219 N.ar    1  UNL1       -0.0227
     40 N           7.6565   -5.7344   25.0196 N.ar    1  UNL1       -0.0429
     41 N           7.0062   -4.3854   24.9336 N.ar    1  UNL1       -0.2113
     42 C           6.5905   -3.5314   26.0947 C.3     1  UNL1        0.1573
@<TRIPOS>BOND
     1    17    18    1
     2    18    19   am
     3    19    20    2
     4    19    16    1
     5    16     1    1
     6     1    22    1
     7    22    23    1
     8    23    24    1
     9    23    25    1
    10    25    26   am
    11    26    27    2
    12    26    28   am
    13    28    31    1
    14    31    32   ar
    15    32    33   ar
    16    33    34   ar
    17    34    35   ar
    18    35    37    1
    19    37    38   ar
    20    38    39   ar
    21    39    40   ar
    22    40    41   ar
    23    41    42    1
    24    35    36   ar
    25     1     2    1
    26     2     3    1
    27     3     4    1
    28     4     5    1
    29     5     6    1
    30     6     8    1
    31     8     9    1
    32     9    10   ar
    33    10    11   ar
    34    11    12   ar
    35    12    13    1
    36    12    14   ar
    37    14    15   ar
    38     6     7    1
    39    36    31   ar
    40     7     2    1
    41    41    37   ar
    42    15     9   ar
    43    18    21    1
    44    25    29    1
    45    28    30    1
@<TRIPOS>MOLECULE
*****
 42 45 0 0 0
SMALL
GASTEIGER

@<TRIPOS>ATOM
      1 C           7.1214   -4.2759   28.2506 C.3     1  UNL1        0.2344
      2 N           7.4038   -5.0068   26.9714 N.3     1  UNL1       -0.2401
      3 C           7.5190   -6.5023   26.9719 C.3     1  UNL1        0.0753
      4 C           7.8014   -7.2332   25.6928 C.3     1  UNL1        0.0175
      5 C           7.9684   -6.4685   24.4132 C.3     1  UNL1        0.0031
      6 C           7.8532   -4.9729   24.4127 C.3     1  UNL1        0.0205
      7 C           7.5708   -4.2420   25.6918 C.3     1  UNL1        0.0756
      8 C           8.0202   -4.2083   23.1332 C.3     1  UNL1        0.0277
      9 C           6.8405   -3.9829   22.2346 C.ar    1  UNL1       -0.0220
     10 C           7.0040   -4.0698   20.7461 C.ar    1  UNL1       -0.0020
     11 C           5.8243   -3.8444   19.8475 C.ar    1  UNL1        0.0293
     12 C           4.4810   -3.5322   20.4375 C.ar    1  UNL1        0.1401
     13 F           3.3012   -3.3068   19.5389 F       1  UNL1       -0.2042
     14 C           4.3174   -3.4453   21.9260 C.ar    1  UNL1        0.0293
     15 C           5.4972   -3.6707   22.8245 C.ar    1  UNL1       -0.0020
     16 O           5.7866   -3.6255   28.4638 O.3     1  UNL1       -0.4221
     17 C           5.5491    0.3283   28.7112 C.3     1  UNL1        0.1140
     18 N           5.7547   -1.1063   29.0982 N.am    1  UNL1       -0.2689
     19 C           5.5810   -2.1909   28.0768 C.2     1  UNL1        0.4028
     20 O           5.2017   -1.8411   26.6683 O.2     1  UNL1       -0.2264
     21 H           6.0037   -1.3360   30.0226 H       1  UNL1        0.1528
     22 C           8.1737   -4.1955   29.3164 C.3     1  UNL1        0.0810
     23 C           7.9280   -4.8131   30.6611 C.3     1  UNL1        0.0782
     24 C           8.9998   -5.6318   31.3176 C.3     1  UNL1        0.0215
     25 N           6.6105   -4.6120   31.3493 N.am    1  UNL1       -0.2902
     26 C           6.2214   -3.2492   31.8409 C.2     1  UNL1        0.3044
     27 O           7.1499   -2.0876   31.6443 O.2     1  UNL1       -0.2525
     28 N           4.9039   -3.0481   32.5292 N.am    1  UNL1       -0.2683
     29 H           6.0011   -5.3743   31.4784 H       1  UNL1        0.1509
     30 H           4.2945   -3.8105   32.6582 H       1  UNL1        0.1564
     31 C           4.5149   -1.6853   33.0208 C.ar    1  UNL1        0.0517
     32 C           4.9336   -1.2336   34.3884 C.ar    1  UNL1        0.0147
     33 C           4.5445    0.1291   34.8800 C.ar    1  UNL1        0.0014
     34 C           3.7367    1.0401   34.0038 C.ar    1  UNL1        0.0032
     35 C           3.3180    0.5883   32.6362 C.ar    1  UNL1        0.0386
     36 C           3.7071   -0.7744   32.1446 C.ar    1  UNL1        0.0178
     37 C           2.5102    1.4993   31.7600 C.ar    1  UNL1        0.1839
     38 N           1.0394    1.3855   31.4883 N.ar    1  UNL1       -0.1081
     39 N           0.6515    2.4999   30.5621 N.ar    1  UNL1       -0.0227
     40 N           1.8826    3.3024   30.2614 N.ar    1  UNL1       -0.0429
     41 N           3.0313    2.6840   31.0018 N.ar    1  UNL1       -0.2113
     42 C           4.4518    3.1657   30.9865 C.3     1  UNL1        0.1573
@<TRIPOS>BOND
     1    17    18    1
     2    18    19   am
     3    19    20    2
     4    19    16    1
     5    16     1    1
     6     1    22    1
     7    22    23    1
     8    23    24    1
     9    23    25    1
    10    25    26   am
    11    26    27    2
    12    26    28   am
    13    28    31    1
    14    31    32   ar
    15    32    33   ar
    16    33    34   ar
    17    34    35   ar
    18    35    37    1
    19    37    38   ar
    20    38    39   ar
    21    39    40   ar
    22    40    41   ar
    23    41    42    1
    24    35    36   ar
    25     1     2    1
    26     2     3    1
    27     3     4    1
    28     4     5    1
    29     5     6    1
    30     6     8    1
    31     8     9    1
    32     9    10   ar
    33    10    11   ar
    34    11    12   ar
    35    12    13    1
    36    12    14   ar
    37    14    15   ar
    38     6     7    1
    39    36    31   ar
    40     7     2    1
    41    41    37   ar
    42    15     9   ar
    43    18    21    1
    44    25    29    1
    45    28    30    1
