@<TRIPOS>MOLECULE
*****
 23 26 0 0 0
SMALL
GASTEIGER

@<TRIPOS>ATOM
      1 C          -7.9760  -16.6458   21.9790 C.2     1  UNL1        0.3394
      2 O          -8.1519  -15.3293   21.2820 O.2     1  UNL1       -0.2452
      3 C          -5.6578  -15.1986   23.6619 C.3     1  UNL1        0.0294
      4 C          -6.5005  -15.5908   24.8392 C.2     1  UNL1       -0.0069
      5 C          -6.0599  -15.2358   26.2284 C.2     1  UNL1        0.1329
      6 F          -4.7766  -14.4885   26.4402 F       1  UNL1       -0.2048
      7 C          -6.9025  -15.6280   27.4056 C.2     1  UNL1        0.0302
      8 C          -8.1858  -16.3753   27.1938 C.2     1  UNL1        0.0176
      9 C          -8.6264  -16.7303   25.8046 C.2     1  UNL1        0.0669
     10 N          -9.8333  -17.4568   25.2893 N.2     1  UNL1       -0.2476
     11 C          -9.7366  -17.5135   23.7935 C.2     1  UNL1        0.1013
     12 C          -8.4699  -16.8221   23.3844 C.2     1  UNL1        0.0815
     13 C          -7.7837  -16.3381   24.6273 C.3     1  UNL1        0.0907
     14 O          -7.3063  -17.7859   21.2707 O.3     1  UNL1       -0.4456
     15 C          -6.5922  -18.8431   22.0595 C.3     1  UNL1        0.2087
     16 C          -5.1075  -19.0071   21.9219 C.3     1  UNL1        0.0445
     17 C          -4.5465  -19.8742   20.8340 C.3     1  UNL1        0.0210
     18 C          -3.0619  -20.0383   20.6962 C.3     1  UNL1        0.0722
     19 N          -2.1383  -19.3352   21.6464 N.3     1  UNL1       -0.2727
     20 C          -2.6993  -18.4681   22.7342 C.3     1  UNL1        0.0722
     21 C          -4.1839  -18.3040   22.8719 C.3     1  UNL1        0.0210
     22 C          -2.9447  -19.2148   21.7614 C.3     1  UNL1        0.0722
     23 C          -4.2871  -19.0665   21.8859 C.3     1  UNL1        0.0210
@<TRIPOS>BOND
     1     3     4    1
     2     4     5    2
     3     5     6    1
     4     5     7    1
     5     7     8    2
     6     8     9    1
     7     9    10    2
     8    10    11    1
     9    11    12    2
    10    12     1    1
    11     1     2    2
    12     1    14    1
    13    14    15    1
    14    15    16    1
    15    16    17    1
    16    17    18    1
    17    18    19    1
    18    19    20    1
    19    20    21    1
    20    19    22    1
    21    22    23    1
    22    12    13    1
    23    13     4    1
    24    13     9    1
    25    21    16    1
    26    23    16    1
@<TRIPOS>MOLECULE
*****
 23 26 0 0 0
SMALL
GASTEIGER

@<TRIPOS>ATOM
      1 C          -8.0085  -18.2551   21.7368 C.2     1  UNL1        0.3394
      2 O          -7.9991  -18.6281   20.2840 O.2     1  UNL1       -0.2452
      3 C         -10.4170  -16.1622   21.3905 C.3     1  UNL1        0.0294
      4 C         -11.1130  -17.0589   22.3711 C.2     1  UNL1       -0.0069
      5 C         -12.5100  -16.7424   22.8162 C.2     1  UNL1        0.1329
      6 F         -13.2110  -15.5291   22.2806 F       1  UNL1       -0.2048
      7 C         -13.2060  -17.6390   23.7967 C.2     1  UNL1        0.0302
      8 C         -12.5050  -18.8522   24.3323 C.2     1  UNL1        0.0176
      9 C         -11.1080  -19.1687   23.8872 C.2     1  UNL1        0.0669
     10 N         -10.1711  -20.2857   24.2399 N.2     1  UNL1       -0.2476
     11 C          -8.8960  -20.0794   23.4773 C.2     1  UNL1        0.1013
     12 C          -9.0448  -18.8349   22.6533 C.2     1  UNL1        0.0815
     13 C         -10.4120  -18.2720   22.9066 C.3     1  UNL1        0.0907
     14 O          -6.9817  -17.3022   22.2732 O.3     1  UNL1       -0.4456
     15 C          -7.4138  -16.0166   22.9138 C.3     1  UNL1        0.2087
     16 C          -7.2606  -15.8275   24.3939 C.3     1  UNL1        0.0445
     17 C          -5.9438  -15.3865   24.9612 C.3     1  UNL1        0.0210
     18 C          -5.7904  -15.1974   26.4413 C.3     1  UNL1        0.0722
     19 N          -6.9539  -15.4492   27.3541 N.3     1  UNL1       -0.2727
     20 C          -8.2706  -15.8901   26.7868 C.3     1  UNL1        0.0722
     21 C          -8.4239  -16.0792   25.3067 C.3     1  UNL1        0.0210
     22 C          -7.0861  -15.5663   26.5499 C.3     1  UNL1        0.0722
     23 C          -7.2246  -15.7373   25.2115 C.3     1  UNL1        0.0210
@<TRIPOS>BOND
     1     3     4    1
     2     4     5    2
     3     5     6    1
     4     5     7    1
     5     7     8    2
     6     8     9    1
     7     9    10    2
     8    10    11    1
     9    11    12    2
    10    12     1    1
    11     1     2    2
    12     1    14    1
    13    14    15    1
    14    15    16    1
    15    16    17    1
    16    17    18    1
    17    18    19    1
    18    19    20    1
    19    20    21    1
    20    19    22    1
    21    22    23    1
    22    12    13    1
    23    13     4    1
    24    13     9    1
    25    21    16    1
    26    23    16    1
@<TRIPOS>MOLECULE
*****
 23 26 0 0 0
SMALL
GASTEIGER

@<TRIPOS>ATOM
      1 C          -7.2459  -18.0432   21.9626 C.2     1  UNL1        0.3394
      2 O          -6.4331  -17.0604   22.7521 O.2     1  UNL1       -0.2452
      3 C          -9.6241  -15.8954   21.7863 C.3     1  UNL1        0.0294
      4 C         -10.4147  -16.9652   22.4795 C.2     1  UNL1       -0.0069
      5 C         -11.8559  -16.7299   22.8221 C.2     1  UNL1        0.1329
      6 F         -12.5066  -15.4246   22.4714 F       1  UNL1       -0.2048
      7 C         -12.6464  -17.7996   23.5152 C.2     1  UNL1        0.0302
      8 C         -11.9957  -19.1049   23.8659 C.2     1  UNL1        0.0176
      9 C         -10.5545  -19.3403   23.5234 C.2     1  UNL1        0.0669
     10 N          -9.6501  -20.5168   23.7420 N.2     1  UNL1       -0.2476
     11 C          -8.3006  -20.1741   23.1840 C.2     1  UNL1        0.1013
     12 C          -8.3710  -18.7858   22.6204 C.2     1  UNL1        0.0815
     13 C          -9.7639  -18.2704   22.8302 C.3     1  UNL1        0.0907
     14 O          -6.9335  -18.2835   20.5153 O.3     1  UNL1       -0.4456
     15 C          -6.0206  -19.4067   20.1216 C.3     1  UNL1        0.2087
     16 C          -4.5375  -19.2634   20.2943 C.3     1  UNL1        0.0445
     17 C          -3.8768  -19.7608   21.5458 C.3     1  UNL1        0.0210
     18 C          -2.3936  -19.6176   21.7186 C.3     1  UNL1        0.0722
     19 N          -1.5712  -18.9771   20.6399 N.3     1  UNL1       -0.2727
     20 C          -2.2320  -18.4797   19.3885 C.3     1  UNL1        0.0722
     21 C          -3.7151  -18.6229   19.2157 C.3     1  UNL1        0.0210
     22 C          -2.3807  -19.0334   20.4999 C.3     1  UNL1        0.0722
     23 C          -3.7218  -19.1629   20.3438 C.3     1  UNL1        0.0210
@<TRIPOS>BOND
     1     3     4    1
     2     4     5    2
     3     5     6    1
     4     5     7    1
     5     7     8    2
     6     8     9    1
     7     9    10    2
     8    10    11    1
     9    11    12    2
    10    12     1    1
    11     1     2    2
    12     1    14    1
    13    14    15    1
    14    15    16    1
    15    16    17    1
    16    17    18    1
    17    18    19    1
    18    19    20    1
    19    20    21    1
    20    19    22    1
    21    22    23    1
    22    12    13    1
    23    13     4    1
    24    13     9    1
    25    21    16    1
    26    23    16    1
@<TRIPOS>MOLECULE
*****
 23 26 0 0 0
SMALL
GASTEIGER

@<TRIPOS>ATOM
      1 C          -7.5213  -17.4087   22.7652 C.2     1  UNL1        0.3394
      2 O          -6.9831  -16.0089   22.7351 O.2     1  UNL1       -0.2452
      3 C          -4.3744  -17.4632   23.3933 C.3     1  UNL1        0.0294
      4 C          -4.3439  -18.4821   22.2928 C.2     1  UNL1       -0.0069
      5 C          -3.0439  -19.1133   21.8909 C.2     1  UNL1        0.1329
      6 F          -1.7744  -18.7256   22.5895 F       1  UNL1       -0.2048
      7 C          -3.0135  -20.1320   20.7904 C.2     1  UNL1        0.0302
      8 C          -4.2831  -20.5197   20.0918 C.2     1  UNL1        0.0176
      9 C          -5.5830  -19.8885   20.4938 C.2     1  UNL1        0.0669
     10 N          -6.9845  -20.0696   19.9908 N.2     1  UNL1       -0.2476
     11 C          -7.8812  -19.1627   20.7805 C.2     1  UNL1        0.1013
     12 C          -7.0338  -18.4211   21.7715 C.2     1  UNL1        0.0815
     13 C          -5.6135  -18.8697   21.5943 C.3     1  UNL1        0.0907
     14 O          -8.5469  -17.7961   23.7889 O.3     1  UNL1       -0.4456
     15 C          -9.8185  -17.0101   23.9112 C.3     1  UNL1        0.2087
     16 C         -10.7936  -16.9790   22.7718 C.3     1  UNL1        0.0445
     17 C         -10.5155  -16.1259   21.5697 C.3     1  UNL1        0.0210
     18 C         -11.4905  -16.0948   20.4302 C.3     1  UNL1        0.0722
     19 N         -12.7437  -16.9168   20.4928 N.3     1  UNL1       -0.2727
     20 C         -13.0219  -17.7699   21.6949 C.3     1  UNL1        0.0722
     21 C         -12.0468  -17.8010   22.8343 C.3     1  UNL1        0.0210
     22 C         -12.2392  -16.9664   21.1417 C.3     1  UNL1        0.0722
     23 C         -11.3576  -16.9945   22.1720 C.3     1  UNL1        0.0210
@<TRIPOS>BOND
     1     3     4    1
     2     4     5    2
     3     5     6    1
     4     5     7    1
     5     7     8    2
     6     8     9    1
     7     9    10    2
     8    10    11    1
     9    11    12    2
    10    12     1    1
    11     1     2    2
    12     1    14    1
    13    14    15    1
    14    15    16    1
    15    16    17    1
    16    17    18    1
    17    18    19    1
    18    19    20    1
    19    20    21    1
    20    19    22    1
    21    22    23    1
    22    12    13    1
    23    13     4    1
    24    13     9    1
    25    21    16    1
    26    23    16    1
@<TRIPOS>MOLECULE
*****
 23 26 0 0 0
SMALL
GASTEIGER

@<TRIPOS>ATOM
      1 C          -8.4010  -18.2209   21.7590 C.2     1  UNL1        0.3394
      2 O          -7.9243  -19.6336   21.9239 O.2     1  UNL1       -0.2452
      3 C         -10.0239  -18.7759   24.4717 C.3     1  UNL1        0.0294
      4 C         -11.2154  -18.4204   23.6326 C.2     1  UNL1       -0.0069
      5 C         -12.5886  -18.4340   24.2359 C.2     1  UNL1        0.1329
      6 F         -12.7703  -18.8030   25.6785 F       1  UNL1       -0.2048
      7 C         -13.7800  -18.0786   23.3969 C.2     1  UNL1        0.0302
      8 C         -13.5983  -17.7095   21.9543 C.2     1  UNL1        0.0176
      9 C         -12.2250  -17.6960   21.3510 C.2     1  UNL1        0.0669
     10 N         -11.7394  -17.3760   19.9683 N.2     1  UNL1       -0.2476
     11 C         -10.2478  -17.5338   19.9529 C.2     1  UNL1        0.1013
     12 C          -9.8116  -17.9512   21.3260 C.2     1  UNL1        0.0815
     13 C         -11.0336  -18.0514   22.1901 C.3     1  UNL1        0.0907
     14 O          -7.4672  -17.0781   22.0271 O.3     1  UNL1       -0.4456
     15 C          -7.9456  -15.8837   22.7979 C.3     1  UNL1        0.2087
     16 C          -7.5490  -15.7098   24.2341 C.3     1  UNL1        0.0445
     17 C          -6.0998  -15.5921   24.6029 C.3     1  UNL1        0.0210
     18 C          -5.7031  -15.4182   26.0391 C.3     1  UNL1        0.0722
     19 N          -6.7557  -15.3620   27.1063 N.3     1  UNL1       -0.2727
     20 C          -8.2049  -15.4797   26.7375 C.3     1  UNL1        0.0722
     21 C          -8.6015  -15.6536   25.3014 C.3     1  UNL1        0.0210
     22 C          -7.0217  -15.4585   26.3330 C.3     1  UNL1        0.0722
     23 C          -7.3802  -15.6157   25.0345 C.3     1  UNL1        0.0210
@<TRIPOS>BOND
     1     3     4    1
     2     4     5    2
     3     5     6    1
     4     5     7    1
     5     7     8    2
     6     8     9    1
     7     9    10    2
     8    10    11    1
     9    11    12    2
    10    12     1    1
    11     1     2    2
    12     1    14    1
    13    14    15    1
    14    15    16    1
    15    16    17    1
    16    17    18    1
    17    18    19    1
    18    19    20    1
    19    20    21    1
    20    19    22    1
    21    22    23    1
    22    12    13    1
    23    13     4    1
    24    13     9    1
    25    21    16    1
    26    23    16    1
@<TRIPOS>MOLECULE
*****
 23 26 0 0 0
SMALL
GASTEIGER

@<TRIPOS>ATOM
      1 C         -11.1084  -16.7835   20.4693 C.2     1  UNL1        0.3394
      2 O         -11.0788  -15.6315   19.5091 O.2     1  UNL1       -0.2452
      3 C          -8.6870  -16.0755   22.4533 C.3     1  UNL1        0.0294
      4 C          -8.1194  -17.3697   21.9502 C.2     1  UNL1       -0.0069
      5 C          -6.7939  -17.8549   22.4576 C.2     1  UNL1        0.1329
      6 F          -6.0359  -17.0458   23.4681 F       1  UNL1       -0.2048
      7 C          -6.2263  -19.1489   21.9546 C.2     1  UNL1        0.0302
      8 C          -6.9843  -19.9580   20.9441 C.2     1  UNL1        0.0176
      9 C          -8.3098  -19.4728   20.4367 C.2     1  UNL1        0.0669
     10 N          -9.2785  -20.0505   19.4478 N.2     1  UNL1       -0.2476
     11 C         -10.4447  -19.1134   19.3397 C.2     1  UNL1        0.1013
     12 C         -10.1969  -17.9565   20.2617 C.2     1  UNL1        0.0815
     13 C          -8.8774  -18.1786   20.9398 C.3     1  UNL1        0.0907
     14 O         -12.0496  -16.7625   21.6371 O.3     1  UNL1       -0.4456
     15 C         -12.4348  -18.0449   22.3130 C.3     1  UNL1        0.2087
     16 C         -11.4732  -18.7193   23.2460 C.3     1  UNL1        0.0445
     17 C         -11.0142  -20.1197   22.9663 C.3     1  UNL1        0.0210
     18 C         -10.0526  -20.7942   23.8993 C.3     1  UNL1        0.0722
     19 N          -9.5499  -20.0682   25.1119 N.3     1  UNL1       -0.2727
     20 C         -10.0088  -18.6678   25.3915 C.3     1  UNL1        0.0722
     21 C         -10.9705  -17.9933   24.4586 C.3     1  UNL1        0.0210
     22 C         -10.0759  -19.6574   24.6297 C.3     1  UNL1        0.0722
     23 C         -10.9455  -19.0476   23.7861 C.3     1  UNL1        0.0210
@<TRIPOS>BOND
     1     3     4    1
     2     4     5    2
     3     5     6    1
     4     5     7    1
     5     7     8    2
     6     8     9    1
     7     9    10    2
     8    10    11    1
     9    11    12    2
    10    12     1    1
    11     1     2    2
    12     1    14    1
    13    14    15    1
    14    15    16    1
    15    16    17    1
    16    17    18    1
    17    18    19    1
    18    19    20    1
    19    20    21    1
    20    19    22    1
    21    22    23    1
    22    12    13    1
    23    13     4    1
    24    13     9    1
    25    21    16    1
    26    23    16    1
@<TRIPOS>MOLECULE
*****
 23 26 0 0 0
SMALL
GASTEIGER

@<TRIPOS>ATOM
      1 C          -7.5430  -18.4289   22.0578 C.2     1  UNL1        0.3394
      2 O          -7.8365  -17.0231   21.6248 O.2     1  UNL1       -0.2452
      3 C          -4.9111  -17.2119   23.4336 C.3     1  UNL1        0.0294
      4 C          -4.1997  -18.1857   22.5416 C.2     1  UNL1       -0.0069
      5 C          -2.7025  -18.2721   22.5689 C.2     1  UNL1        0.1329
      6 F          -1.9167  -17.3846   23.4881 F       1  UNL1       -0.2048
      7 C          -1.9911  -19.2458   21.6769 C.2     1  UNL1        0.0302
      8 C          -2.7769  -20.1333   20.7577 C.2     1  UNL1        0.0176
      9 C          -4.2741  -20.0469   20.7305 C.2     1  UNL1        0.0669
     10 N          -5.3079  -20.7877   19.9351 N.2     1  UNL1       -0.2476
     11 C          -6.6582  -20.2717   20.3356 C.2     1  UNL1        0.1013
     12 C          -6.4590  -19.2121   21.3784 C.2     1  UNL1        0.0815
     13 C          -4.9855  -19.0731   21.6224 C.3     1  UNL1        0.0907
     14 O          -8.3335  -19.0515   23.1702 O.3     1  UNL1       -0.4456
     15 C          -9.6094  -19.7796   22.8673 C.3     1  UNL1        0.2087
     16 C         -10.9286  -19.0903   23.0535 C.3     1  UNL1        0.0445
     17 C         -11.5844  -19.0780   24.4026 C.3     1  UNL1        0.0210
     18 C         -12.9036  -18.3888   24.5889 C.3     1  UNL1        0.0722
     19 N         -13.5670  -17.7119   23.4262 N.3     1  UNL1       -0.2727
     20 C         -12.9112  -17.7242   22.0772 C.3     1  UNL1        0.0722
     21 C         -11.5920  -18.4134   21.8909 C.3     1  UNL1        0.0210
     22 C         -12.8444  -18.0766   23.2753 C.3     1  UNL1        0.0722
     23 C         -11.6515  -18.6998   23.1069 C.3     1  UNL1        0.0210
@<TRIPOS>BOND
     1     3     4    1
     2     4     5    2
     3     5     6    1
     4     5     7    1
     5     7     8    2
     6     8     9    1
     7     9    10    2
     8    10    11    1
     9    11    12    2
    10    12     1    1
    11     1     2    2
    12     1    14    1
    13    14    15    1
    14    15    16    1
    15    16    17    1
    16    17    18    1
    17    18    19    1
    18    19    20    1
    19    20    21    1
    20    19    22    1
    21    22    23    1
    22    12    13    1
    23    13     4    1
    24    13     9    1
    25    21    16    1
    26    23    16    1
@<TRIPOS>MOLECULE
*****
 23 26 0 0 0
SMALL
GASTEIGER

@<TRIPOS>ATOM
      1 C          -7.6655  -17.9514   22.4596 C.2     1  UNL1        0.3394
      2 O          -8.3907  -17.0966   21.4629 O.2     1  UNL1       -0.2452
      3 C          -6.2181  -20.1891   20.6711 C.3     1  UNL1        0.0294
      4 C          -4.9652  -19.5930   21.2411 C.2     1  UNL1       -0.0069
      5 C          -3.6268  -20.1481   20.8533 C.2     1  UNL1        0.1329
      6 F          -3.5413  -21.2994   19.8955 F       1  UNL1       -0.2048
      7 C          -2.3739  -19.5520   21.4232 C.2     1  UNL1        0.0302
      8 C          -2.4594  -18.4007   22.3809 C.2     1  UNL1        0.0176
      9 C          -3.7978  -17.8455   22.7687 C.2     1  UNL1        0.0669
     10 N          -4.1925  -16.7243   23.6837 N.2     1  UNL1       -0.2476
     11 C          -5.6894  -16.6275   23.6792 C.2     1  UNL1        0.1013
     12 C          -6.2198  -17.6889   22.7615 C.2     1  UNL1        0.0815
     13 C          -5.0508  -18.4417   22.1988 C.3     1  UNL1        0.0907
     14 O          -8.3859  -19.0687   23.1542 O.3     1  UNL1       -0.4456
     15 C          -9.6427  -19.6336   22.5616 C.3     1  UNL1        0.2087
     16 C         -10.9707  -19.0215   22.8960 C.3     1  UNL1        0.0445
     17 C         -11.5216  -19.1387   24.2863 C.3     1  UNL1        0.0210
     18 C         -12.8496  -18.5266   24.6209 C.3     1  UNL1        0.0722
     19 N         -13.6266  -17.7973   23.5651 N.3     1  UNL1       -0.2727
     20 C         -13.0756  -17.6802   22.1749 C.3     1  UNL1        0.0722
     21 C         -11.7477  -18.2923   21.8404 C.3     1  UNL1        0.0210
     22 C         -12.9034  -18.1163   23.3343 C.3     1  UNL1        0.0722
     23 C         -11.7026  -18.6697   23.0319 C.3     1  UNL1        0.0210
@<TRIPOS>BOND
     1     3     4    1
     2     4     5    2
     3     5     6    1
     4     5     7    1
     5     7     8    2
     6     8     9    1
     7     9    10    2
     8    10    11    1
     9    11    12    2
    10    12     1    1
    11     1     2    2
    12     1    14    1
    13    14    15    1
    14    15    16    1
    15    16    17    1
    16    17    18    1
    17    18    19    1
    18    19    20    1
    19    20    21    1
    20    19    22    1
    21    22    23    1
    22    12    13    1
    23    13     4    1
    24    13     9    1
    25    21    16    1
    26    23    16    1
@<TRIPOS>MOLECULE
*****
 23 26 0 0 0
SMALL
GASTEIGER

@<TRIPOS>ATOM
      1 C          -7.8654  -19.2482   21.5973 C.2     1  UNL1        0.3394
      2 O          -8.6563  -20.1926   22.4532 O.2     1  UNL1       -0.2452
      3 C          -9.3770  -17.0875   23.4267 C.3     1  UNL1        0.0294
      4 C          -7.9834  -16.6384   23.7526 C.2     1  UNL1       -0.0069
      5 C          -7.7661  -15.4899   24.6926 C.2     1  UNL1        0.1329
      6 F          -8.9425  -14.7904   25.3067 F       1  UNL1       -0.2048
      7 C          -6.3726  -15.0408   25.0185 C.2     1  UNL1        0.0302
      8 C          -5.1962  -15.7402   24.4045 C.2     1  UNL1        0.0176
      9 C          -5.4135  -16.8887   23.4645 C.2     1  UNL1        0.0669
     10 N          -4.4563  -17.7646   22.7119 N.2     1  UNL1       -0.2476
     11 C          -5.2582  -18.7551   21.9208 C.2     1  UNL1        0.1013
     12 C          -6.7111  -18.4914   22.1845 C.2     1  UNL1        0.0815
     13 C          -6.8071  -17.3378   23.1386 C.3     1  UNL1        0.0907
     14 O          -8.2287  -19.0607   20.1540 O.3     1  UNL1       -0.4456
     15 C          -9.6413  -19.2835   19.7013 C.3     1  UNL1        0.2087
     16 C         -10.7324  -18.3668   20.1695 C.3     1  UNL1        0.0445
     17 C         -10.8630  -16.9938   19.5795 C.3     1  UNL1        0.0210
     18 C         -11.9541  -16.0771   20.0477 C.3     1  UNL1        0.0722
     19 N         -12.9145  -16.5333   21.1059 N.3     1  UNL1       -0.2727
     20 C         -12.7838  -17.9062   21.6958 C.3     1  UNL1        0.0722
     21 C         -11.6927  -18.8229   21.2277 C.3     1  UNL1        0.0210
     22 C         -12.3328  -17.0711   20.8814 C.3     1  UNL1        0.0722
     23 C         -11.3462  -17.9000   20.4580 C.3     1  UNL1        0.0210
@<TRIPOS>BOND
     1     3     4    1
     2     4     5    2
     3     5     6    1
     4     5     7    1
     5     7     8    2
     6     8     9    1
     7     9    10    2
     8    10    11    1
     9    11    12    2
    10    12     1    1
    11     1     2    2
    12     1    14    1
    13    14    15    1
    14    15    16    1
    15    16    17    1
    16    17    18    1
    17    18    19    1
    18    19    20    1
    19    20    21    1
    20    19    22    1
    21    22    23    1
    22    12    13    1
    23    13     4    1
    24    13     9    1
    25    21    16    1
    26    23    16    1
