@<TRIPOS>MOLECULE
*****
 26 28 0 0 0
SMALL
GASTEIGER

@<TRIPOS>ATOM
      1 N          -8.1611  -17.2018   22.7253 N.pl3   1  UNL1       -0.3034
      2 C          -4.1928  -20.1533   20.8756 C.2     1  UNL1        0.4050
      3 O          -3.9772  -21.1947   19.8177 O.2     1  UNL1       -0.2262
      4 N          -5.5522  -19.5491   21.0671 N.am    1  UNL1       -0.2443
      5 C          -6.7849  -19.8845   20.2809 C.3     1  UNL1        0.0986
      6 C          -7.9123  -19.0460   20.8064 C.3     1  UNL1        0.0431
      7 C          -7.3763  -18.1924   21.9173 C.3     1  UNL1        0.0947
      8 C          -5.9177  -18.5033   22.0784 C.3     1  UNL1        0.1164
      9 C          -2.0371  -18.7431   21.2135 C.3     1  UNL1        0.2573
     10 O          -3.0489  -19.7162   21.7418 O.3     1  UNL1       -0.4304
     11 C          -9.5809  -17.5012   23.1056 C.ar    1  UNL1        0.0490
     12 C          -9.8832  -18.6289   24.0472 C.ar    1  UNL1        0.0153
     13 C         -11.3030  -18.9283   24.4275 C.ar    1  UNL1        0.0124
     14 C         -12.4204  -18.0999   23.8661 C.ar    1  UNL1        0.0791
     15 C         -12.1181  -16.9721   22.9244 C.ar    1  UNL1        0.0685
     16 CL        -13.2355  -16.1438   22.3630 Cl      1  UNL1       -0.0815
     17 C         -10.6983  -16.6728   22.5441 C.ar    1  UNL1        0.0266
     18 C         -13.8402  -18.3993   24.2464 C.1     1  UNL1        0.1013
     19 N         -15.2600  -18.6987   24.6267 N.1     1  UNL1       -0.1908
     20 C          -7.5262  -15.9118   23.1529 C.3     1  UNL1        0.1177
     21 C          -7.2620  -15.6516   24.6064 C.ar    1  UNL1       -0.0024
     22 C          -5.8531  -15.4918   25.0957 C.ar    1  UNL1       -0.0026
     23 C          -5.5890  -15.2315   26.5491 C.ar    1  UNL1       -0.0003
     24 C          -6.7337  -15.1310   27.5132 C.ar    1  UNL1       -0.0000
     25 C          -8.1426  -15.2908   27.0239 C.ar    1  UNL1       -0.0003
     26 C          -8.4067  -15.5511   25.5705 C.ar    1  UNL1       -0.0026
@<TRIPOS>BOND
     1     9    10    1
     2    10     2    1
     3     2     3    2
     4     2     4   am
     5     4     5    1
     6     5     6    1
     7     6     7    1
     8     7     1    1
     9     1    20    1
    10    20    21    1
    11    21    22   ar
    12    22    23   ar
    13    23    24   ar
    14    24    25   ar
    15    25    26   ar
    16     1    11    1
    17    11    12   ar
    18    12    13   ar
    19    13    14   ar
    20    14    18    1
    21    18    19    3
    22    14    15   ar
    23    15    16    1
    24    15    17   ar
    25     7     8    1
    26     8     4    1
    27    26    21   ar
    28    17    11   ar
@<TRIPOS>MOLECULE
*****
 26 28 0 0 0
SMALL
GASTEIGER

@<TRIPOS>ATOM
      1 N          -8.0372  -18.9098   21.7581 N.pl3   1  UNL1       -0.3034
      2 C          -2.8085  -19.5904   21.4784 C.2     1  UNL1        0.4050
      3 O          -1.8350  -20.4523   20.7305 O.2     1  UNL1       -0.2262
      4 N          -4.2813  -19.7382   21.2358 N.am    1  UNL1       -0.2443
      5 C          -4.9256  -20.6994   20.2813 C.3     1  UNL1        0.0986
      6 C          -6.4110  -20.5060   20.3608 C.3     1  UNL1        0.0431
      7 C          -6.6847  -19.4254   21.3644 C.3     1  UNL1        0.0947
      8 C          -5.3685  -18.9509   21.9052 C.3     1  UNL1        0.1164
      9 C          -2.2068  -17.1356   22.0800 C.3     1  UNL1        0.2573
     10 O          -2.3091  -18.5806   22.4688 O.3     1  UNL1       -0.4304
     11 C          -8.1871  -18.0556   22.9820 C.ar    1  UNL1        0.0490
     12 C          -9.1653  -18.4424   24.0513 C.ar    1  UNL1        0.0153
     13 C          -9.3152  -17.5882   25.2752 C.ar    1  UNL1        0.0124
     14 C          -8.4869  -16.3473   25.4298 C.ar    1  UNL1        0.0791
     15 C          -7.5086  -15.9605   24.3605 C.ar    1  UNL1        0.0685
     16 CL         -6.6803  -14.7195   24.5151 Cl      1  UNL1       -0.0815
     17 C          -7.3587  -16.8146   23.1366 C.ar    1  UNL1        0.0266
     18 C          -8.6368  -15.4931   26.6537 C.1     1  UNL1        0.1013
     19 N          -8.7867  -14.6390   27.8776 N.1     1  UNL1       -0.1908
     20 C          -9.2397  -19.2484   20.9280 C.3     1  UNL1        0.1177
     21 C         -10.4249  -18.3290   20.9146 C.ar    1  UNL1       -0.0024
     22 C         -10.3827  -17.0626   20.1119 C.ar    1  UNL1       -0.0026
     23 C         -11.5679  -16.1433   20.0986 C.ar    1  UNL1       -0.0003
     24 C         -12.7953  -16.4904   20.8880 C.ar    1  UNL1       -0.0000
     25 C         -12.8375  -17.7568   21.6906 C.ar    1  UNL1       -0.0003
     26 C         -11.6523  -18.6761   21.7040 C.ar    1  UNL1       -0.0026
@<TRIPOS>BOND
     1     9    10    1
     2    10     2    1
     3     2     3    2
     4     2     4   am
     5     4     5    1
     6     5     6    1
     7     6     7    1
     8     7     1    1
     9     1    20    1
    10    20    21    1
    11    21    22   ar
    12    22    23   ar
    13    23    24   ar
    14    24    25   ar
    15    25    26   ar
    16     1    11    1
    17    11    12   ar
    18    12    13   ar
    19    13    14   ar
    20    14    18    1
    21    18    19    3
    22    14    15   ar
    23    15    16    1
    24    15    17   ar
    25     7     8    1
    26     8     4    1
    27    26    21   ar
    28    17    11   ar
@<TRIPOS>MOLECULE
*****
 26 28 0 0 0
SMALL
GASTEIGER

@<TRIPOS>ATOM
      1 N          -7.5635  -16.7850   22.8473 N.pl3   1  UNL1       -0.3034
      2 C         -12.5594  -17.3096   21.2206 C.2     1  UNL1        0.4050
      3 O         -13.6866  -18.2864   21.3792 O.2     1  UNL1       -0.2262
      4 N         -11.2431  -17.5679   21.8919 N.am    1  UNL1       -0.2443
      5 C         -10.9076  -18.7529   22.7482 C.3     1  UNL1        0.0986
      6 C          -9.4883  -18.6039   23.2103 C.3     1  UNL1        0.0431
      7 C          -8.9468  -17.3267   22.6396 C.3     1  UNL1        0.0947
      8 C         -10.0313  -16.6865   21.8249 C.3     1  UNL1        0.1164
      9 C         -11.7970  -15.7693   19.2722 C.3     1  UNL1        0.2573
     10 O         -12.7486  -16.0744   20.3908 O.3     1  UNL1       -0.4304
     11 C          -6.3717  -17.5830   22.4081 C.ar    1  UNL1        0.0490
     12 C          -6.5279  -18.6547   21.3703 C.ar    1  UNL1        0.0153
     13 C          -5.3361  -19.4528   20.9311 C.ar    1  UNL1        0.0124
     14 C          -3.9883  -19.1791   21.5296 C.ar    1  UNL1        0.0791
     15 C          -3.8321  -18.1073   22.5675 C.ar    1  UNL1        0.0685
     16 CL         -2.4842  -17.8336   23.1660 Cl      1  UNL1       -0.0815
     17 C          -5.0238  -17.3093   23.0067 C.ar    1  UNL1        0.0266
     18 C          -2.7965  -19.9771   21.0904 C.1     1  UNL1        0.1013
     19 N          -1.6048  -20.7751   20.6511 N.1     1  UNL1       -0.1908
     20 C          -7.3719  -15.4453   23.4943 C.3     1  UNL1        0.1177
     21 C          -7.2976  -15.3378   24.9886 C.ar    1  UNL1       -0.0024
     22 C          -5.9701  -15.1539   25.6622 C.ar    1  UNL1       -0.0026
     23 C          -5.8959  -15.0463   27.1565 C.ar    1  UNL1       -0.0003
     24 C          -7.1492  -15.1227   27.9771 C.ar    1  UNL1       -0.0000
     25 C          -8.4767  -15.3066   27.3035 C.ar    1  UNL1       -0.0003
     26 C          -8.5509  -15.4141   25.8092 C.ar    1  UNL1       -0.0026
@<TRIPOS>BOND
     1     9    10    1
     2    10     2    1
     3     2     3    2
     4     2     4   am
     5     4     5    1
     6     5     6    1
     7     6     7    1
     8     7     1    1
     9     1    20    1
    10    20    21    1
    11    21    22   ar
    12    22    23   ar
    13    23    24   ar
    14    24    25   ar
    15    25    26   ar
    16     1    11    1
    17    11    12   ar
    18    12    13   ar
    19    13    14   ar
    20    14    18    1
    21    18    19    3
    22    14    15   ar
    23    15    16    1
    24    15    17   ar
    25     7     8    1
    26     8     4    1
    27    26    21   ar
    28    17    11   ar
@<TRIPOS>MOLECULE
*****
 26 28 0 0 0
SMALL
GASTEIGER

@<TRIPOS>ATOM
      1 N          -8.0150  -18.5721   21.9642 N.pl3   1  UNL1       -0.3034
      2 C          -7.9645  -15.6182   26.3405 C.2     1  UNL1        0.4050
      3 O          -8.7146  -15.5331   27.6366 O.2     1  UNL1       -0.2262
      4 N          -8.3295  -16.6649   25.3301 N.am    1  UNL1       -0.2443
      5 C          -9.4153  -17.6896   25.4750 C.3     1  UNL1        0.0986
      6 C          -9.4297  -18.5288   24.2317 C.3     1  UNL1        0.0431
      7 C          -8.3527  -18.0227   23.3185 C.3     1  UNL1        0.0947
      8 C          -7.6728  -16.8708   23.9973 C.3     1  UNL1        0.1164
      9 C          -5.4250  -15.1241   26.1026 C.3     1  UNL1        0.2573
     10 O          -6.8493  -14.6565   26.0549 O.3     1  UNL1       -0.4304
     11 C          -6.5820  -18.6776   21.5336 C.ar    1  UNL1        0.0490
     12 C          -6.2489  -19.0828   20.1283 C.ar    1  UNL1        0.0153
     13 C          -4.8159  -19.1883   19.6978 C.ar    1  UNL1        0.0124
     14 C          -3.7160  -18.8886   20.6725 C.ar    1  UNL1        0.0791
     15 C          -4.0490  -18.4833   22.0779 C.ar    1  UNL1        0.0685
     16 CL         -2.9490  -18.1836   23.0526 Cl      1  UNL1       -0.0815
     17 C          -5.4820  -18.3778   22.5084 C.ar    1  UNL1        0.0266
     18 C          -2.2830  -18.9941   20.2420 C.1     1  UNL1        0.1013
     19 N          -0.8499  -19.0996   19.8115 N.1     1  UNL1       -0.1908
     20 C          -9.1102  -19.0160   21.0404 C.3     1  UNL1        0.1177
     21 C         -10.3594  -18.1958   20.9095 C.ar    1  UNL1       -0.0024
     22 C         -10.3546  -16.9504   20.0736 C.ar    1  UNL1       -0.0026
     23 C         -11.6037  -16.1303   19.9427 C.ar    1  UNL1       -0.0003
     24 C         -12.8575  -16.5556   20.6476 C.ar    1  UNL1       -0.0000
     25 C         -12.8623  -17.8011   21.4835 C.ar    1  UNL1       -0.0003
     26 C         -11.6132  -18.6212   21.6144 C.ar    1  UNL1       -0.0026
@<TRIPOS>BOND
     1     9    10    1
     2    10     2    1
     3     2     3    2
     4     2     4   am
     5     4     5    1
     6     5     6    1
     7     6     7    1
     8     7     1    1
     9     1    20    1
    10    20    21    1
    11    21    22   ar
    12    22    23   ar
    13    23    24   ar
    14    24    25   ar
    15    25    26   ar
    16     1    11    1
    17    11    12   ar
    18    12    13   ar
    19    13    14   ar
    20    14    18    1
    21    18    19    3
    22    14    15   ar
    23    15    16    1
    24    15    17   ar
    25     7     8    1
    26     8     4    1
    27    26    21   ar
    28    17    11   ar
@<TRIPOS>MOLECULE
*****
 26 28 0 0 0
SMALL
GASTEIGER

@<TRIPOS>ATOM
      1 N         -13.8299   -6.6578   18.8814 N.pl3   1  UNL1       -0.3034
      2 C         -18.4225   -9.2559   18.6853 C.2     1  UNL1        0.4050
      3 O         -18.9183  -10.6151   18.2895 O.2     1  UNL1       -0.2262
      4 N         -16.9629   -8.9284   18.5746 N.am    1  UNL1       -0.2443
      5 C         -15.8864   -9.8527   18.0880 C.3     1  UNL1        0.0986
      6 C         -14.5816   -9.1146   18.1437 C.3     1  UNL1        0.0431
      7 C         -14.8520   -7.7342   18.6647 C.3     1  UNL1        0.0947
      8 C         -16.3236   -7.6191   18.9310 C.3     1  UNL1        0.1164
      9 C         -19.6252   -8.0804   20.6657 C.3     1  UNL1        0.2573
     10 O         -19.3864   -8.2242   19.1919 O.3     1  UNL1       -0.4304
     11 C         -14.2685   -5.2398   19.0980 C.ar    1  UNL1        0.0490
     12 C         -14.0323   -4.5756   20.4220 C.ar    1  UNL1        0.0153
     13 C         -14.4709   -3.1576   20.6386 C.ar    1  UNL1        0.0124
     14 C         -15.1456   -2.4038   19.5313 C.ar    1  UNL1        0.0791
     15 C         -15.3818   -3.0679   18.2071 C.ar    1  UNL1        0.0685
     16 CL        -16.0566   -2.3141   17.0998 Cl      1  UNL1       -0.0815
     17 C         -14.9433   -4.4859   17.9905 C.ar    1  UNL1        0.0266
     18 C         -15.5842   -0.9858   19.7479 C.1     1  UNL1        0.1013
     19 N         -16.0228    0.4322   19.9645 N.1     1  UNL1       -0.1908
     20 C         -12.3694   -6.9994   18.8814 C.3     1  UNL1        0.1177
     21 C         -11.3843   -6.0811   18.2207 C.ar    1  UNL1       -0.0024
     22 C         -10.4424   -5.2655   19.0559 C.ar    1  UNL1       -0.0026
     23 C          -9.4574   -4.3472   18.3953 C.ar    1  UNL1       -0.0003
     24 C          -9.4142   -4.2446   16.8994 C.ar    1  UNL1       -0.0000
     25 C         -10.3561   -5.0602   16.0642 C.ar    1  UNL1       -0.0003
     26 C         -11.3411   -5.9785   16.7249 C.ar    1  UNL1       -0.0026
@<TRIPOS>BOND
     1     9    10    1
     2    10     2    1
     3     2     3    2
     4     2     4   am
     5     4     5    1
     6     5     6    1
     7     6     7    1
     8     7     1    1
     9     1    20    1
    10    20    21    1
    11    21    22   ar
    12    22    23   ar
    13    23    24   ar
    14    24    25   ar
    15    25    26   ar
    16     1    11    1
    17    11    12   ar
    18    12    13   ar
    19    13    14   ar
    20    14    18    1
    21    18    19    3
    22    14    15   ar
    23    15    16    1
    24    15    17   ar
    25     7     8    1
    26     8     4    1
    27    26    21   ar
    28    17    11   ar
@<TRIPOS>MOLECULE
*****
 26 28 0 0 0
SMALL
GASTEIGER

@<TRIPOS>ATOM
      1 N         -13.8253   -4.4198   19.0370 N.pl3   1  UNL1       -0.3034
      2 C         -16.7339   -0.0232   19.3385 C.2     1  UNL1        0.4050
      3 O         -17.4321    0.9178   18.4020 O.2     1  UNL1       -0.2262
      4 N         -15.9870   -1.2051   18.7952 N.am    1  UNL1       -0.2443
      5 C         -15.8514   -1.5727   17.3472 C.3     1  UNL1        0.0986
      6 C         -15.0251   -2.8218   17.2616 C.3     1  UNL1        0.0431
      7 C         -14.6501   -3.2259   18.6566 C.3     1  UNL1        0.0947
      8 C         -15.2446   -2.2268   19.6044 C.3     1  UNL1        0.1164
      9 C         -17.3030    1.5204   21.3493 C.3     1  UNL1        0.2573
     10 O         -16.7826    0.2178   20.8182 O.3     1  UNL1       -0.4304
     11 C         -14.4220   -5.7946   18.9735 C.ar    1  UNL1        0.0490
     12 C         -13.6230   -6.9337   18.4133 C.ar    1  UNL1        0.0153
     13 C         -14.2196   -8.3085   18.3497 C.ar    1  UNL1        0.0124
     14 C         -15.6153   -8.5441   18.8463 C.ar    1  UNL1        0.0791
     15 C         -16.4143   -7.4049   19.4065 C.ar    1  UNL1        0.0685
     16 CL        -17.8100   -7.6405   19.9031 Cl      1  UNL1       -0.0815
     17 C         -15.8177   -6.0301   19.4701 C.ar    1  UNL1        0.0266
     18 C         -16.2119   -9.9189   18.7828 C.1     1  UNL1        0.1013
     19 N         -16.8085  -11.2936   18.7192 N.1     1  UNL1       -0.1908
     20 C         -12.4041   -4.2388   19.4810 C.3     1  UNL1        0.1177
     21 C         -11.3150   -4.0764   18.4623 C.ar    1  UNL1       -0.0024
     22 C         -11.1922   -2.7942   17.6936 C.ar    1  UNL1       -0.0026
     23 C         -10.1032   -2.6319   16.6750 C.ar    1  UNL1       -0.0003
     24 C          -9.1370   -3.7517   16.4250 C.ar    1  UNL1       -0.0000
     25 C          -9.2598   -5.0338   17.1937 C.ar    1  UNL1       -0.0003
     26 C         -10.3488   -5.1962   18.2123 C.ar    1  UNL1       -0.0026
@<TRIPOS>BOND
     1     9    10    1
     2    10     2    1
     3     2     3    2
     4     2     4   am
     5     4     5    1
     6     5     6    1
     7     6     7    1
     8     7     1    1
     9     1    20    1
    10    20    21    1
    11    21    22   ar
    12    22    23   ar
    13    23    24   ar
    14    24    25   ar
    15    25    26   ar
    16     1    11    1
    17    11    12   ar
    18    12    13   ar
    19    13    14   ar
    20    14    18    1
    21    18    19    3
    22    14    15   ar
    23    15    16    1
    24    15    17   ar
    25     7     8    1
    26     8     4    1
    27    26    21   ar
    28    17    11   ar
@<TRIPOS>MOLECULE
*****
 26 28 0 0 0
SMALL
GASTEIGER

@<TRIPOS>ATOM
      1 N         -14.2763   -5.4572   19.2422 N.pl3   1  UNL1       -0.3034
      2 C         -17.0228   -9.9669   19.2209 C.2     1  UNL1        0.4050
      3 O         -16.8564  -11.3710   18.7203 O.2     1  UNL1       -0.2262
      4 N         -15.9362   -8.9573   18.9975 N.am    1  UNL1       -0.2443
      5 C         -14.6344   -9.2041   18.2942 C.3     1  UNL1        0.0986
      6 C         -13.8542   -7.9229   18.3003 C.3     1  UNL1        0.0431
      7 C         -14.6738   -6.8845   19.0073 C.3     1  UNL1        0.0947
      8 C         -15.9605   -7.5237   19.4382 C.3     1  UNL1        0.1164
      9 C         -19.5142   -9.2318   19.1700 C.3     1  UNL1        0.2573
     10 O         -18.2759   -9.5724   19.9449 O.3     1  UNL1       -0.4304
     11 C         -15.2072   -4.3462   18.8559 C.ar    1  UNL1        0.0490
     12 C         -16.0815   -4.4870   17.6453 C.ar    1  UNL1        0.0153
     13 C         -17.0124   -3.3760   17.2591 C.ar    1  UNL1        0.0124
     14 C         -17.0689   -2.1242   18.0835 C.ar    1  UNL1        0.0791
     15 C         -16.1945   -1.9833   19.2942 C.ar    1  UNL1        0.0685
     16 CL        -16.2511   -0.7315   20.1186 Cl      1  UNL1       -0.0815
     17 C         -15.2637   -3.0944   19.6804 C.ar    1  UNL1        0.0266
     18 C         -17.9998   -1.0132   17.6972 C.1     1  UNL1        0.1013
     19 N         -18.9306    0.0978   17.3110 N.1     1  UNL1       -0.1908
     20 C         -12.9481   -5.1411   19.8632 C.3     1  UNL1        0.1177
     21 C         -11.7600   -4.8612   18.9913 C.ar    1  UNL1       -0.0024
     22 C         -11.5779   -3.5011   18.3856 C.ar    1  UNL1       -0.0026
     23 C         -10.3899   -3.2213   17.5137 C.ar    1  UNL1       -0.0003
     24 C          -9.3839   -4.3017   17.2475 C.ar    1  UNL1       -0.0000
     25 C          -9.5660   -5.6618   17.8532 C.ar    1  UNL1       -0.0003
     26 C         -10.7540   -5.9416   18.7251 C.ar    1  UNL1       -0.0026
@<TRIPOS>BOND
     1     9    10    1
     2    10     2    1
     3     2     3    2
     4     2     4   am
     5     4     5    1
     6     5     6    1
     7     6     7    1
     8     7     1    1
     9     1    20    1
    10    20    21    1
    11    21    22   ar
    12    22    23   ar
    13    23    24   ar
    14    24    25   ar
    15    25    26   ar
    16     1    11    1
    17    11    12   ar
    18    12    13   ar
    19    13    14   ar
    20    14    18    1
    21    18    19    3
    22    14    15   ar
    23    15    16    1
    24    15    17   ar
    25     7     8    1
    26     8     4    1
    27    26    21   ar
    28    17    11   ar
@<TRIPOS>MOLECULE
*****
 26 28 0 0 0
SMALL
GASTEIGER

@<TRIPOS>ATOM
      1 N         -12.8391   -3.5766   17.7706 N.pl3   1  UNL1       -0.3034
      2 C         -14.9719    1.1232   18.8857 C.2     1  UNL1        0.4050
      3 O         -14.5297    2.5533   18.9825 O.2     1  UNL1       -0.2262
      4 N         -13.9835    0.0557   18.5204 N.am    1  UNL1       -0.2443
      5 C         -12.5278    0.2656   18.2254 C.3     1  UNL1        0.0986
      6 C         -11.9219   -1.0696   17.9086 C.3     1  UNL1        0.0431
      7 C         -13.0032   -2.1045   18.0078 C.3     1  UNL1        0.0947
      8 C         -14.2773   -1.4090   18.3860 C.3     1  UNL1        0.1164
      9 C         -16.8213    0.3281   20.5281 C.3     1  UNL1        0.2573
     10 O         -16.4024    0.7608   19.1544 O.3     1  UNL1       -0.4304
     11 C         -13.9085   -4.5312   18.2121 C.ar    1  UNL1        0.0490
     12 C         -14.0585   -4.8693   19.6657 C.ar    1  UNL1        0.0153
     13 C         -15.1280   -5.8240   20.1073 C.ar    1  UNL1        0.0124
     14 C         -16.0474   -6.4405   19.0951 C.ar    1  UNL1        0.0791
     15 C         -15.8974   -6.1024   17.6414 C.ar    1  UNL1        0.0685
     16 CL        -16.8169   -6.7189   16.6293 Cl      1  UNL1       -0.0815
     17 C         -14.8280   -5.1477   17.1999 C.ar    1  UNL1        0.0266
     18 C         -17.1169   -7.3951   19.5367 C.1     1  UNL1        0.1013
     19 N         -18.1863   -8.3498   19.9782 N.1     1  UNL1       -0.1908
     20 C         -11.6055   -4.0939   17.0918 C.3     1  UNL1        0.1177
     21 C         -10.8985   -5.2989   17.6378 C.ar    1  UNL1       -0.0024
     22 C          -9.9534   -5.1544   18.7936 C.ar    1  UNL1       -0.0026
     23 C          -9.2464   -6.3594   19.3395 C.ar    1  UNL1       -0.0003
     24 C          -9.4845   -7.7090   18.7296 C.ar    1  UNL1       -0.0000
     25 C         -10.4296   -7.8535   17.5738 C.ar    1  UNL1       -0.0003
     26 C         -11.1366   -6.6485   17.0279 C.ar    1  UNL1       -0.0026
@<TRIPOS>BOND
     1     9    10    1
     2    10     2    1
     3     2     3    2
     4     2     4   am
     5     4     5    1
     6     5     6    1
     7     6     7    1
     8     7     1    1
     9     1    20    1
    10    20    21    1
    11    21    22   ar
    12    22    23   ar
    13    23    24   ar
    14    24    25   ar
    15    25    26   ar
    16     1    11    1
    17    11    12   ar
    18    12    13   ar
    19    13    14   ar
    20    14    18    1
    21    18    19    3
    22    14    15   ar
    23    15    16    1
    24    15    17   ar
    25     7     8    1
    26     8     4    1
    27    26    21   ar
    28    17    11   ar
@<TRIPOS>MOLECULE
*****
 26 28 0 0 0
SMALL
GASTEIGER

@<TRIPOS>ATOM
      1 N         -14.0546   -5.0667   17.5546 N.pl3   1  UNL1       -0.3034
      2 C         -16.7335   -1.0551   19.7016 C.2     1  UNL1        0.4050
      3 O         -16.4344    0.2496   20.3787 O.2     1  UNL1       -0.2262
      4 N         -15.6104   -1.9275   19.2249 N.am    1  UNL1       -0.2443
      5 C         -14.1461   -1.6290   19.3545 C.3     1  UNL1        0.0986
      6 C         -13.3850   -2.7687   18.7445 C.3     1  UNL1        0.0431
      7 C         -14.3790   -3.7714   18.2380 C.3     1  UNL1        0.0947
      8 C         -15.7544   -3.2516   18.5349 C.3     1  UNL1        0.1164
      9 C         -18.7835   -2.4647   20.4503 C.3     1  UNL1        0.2573
     10 O         -18.1559   -1.4872   19.5014 O.3     1  UNL1       -0.4304
     11 C         -15.0354   -6.2010   17.5925 C.ar    1  UNL1        0.0490
     12 C         -15.8171   -6.5580   16.3631 C.ar    1  UNL1        0.0153
     13 C         -16.7979   -7.6922   16.4010 C.ar    1  UNL1        0.0124
     14 C         -16.9971   -8.4695   17.6684 C.ar    1  UNL1        0.0791
     15 C         -16.2154   -8.1125   18.8979 C.ar    1  UNL1        0.0685
     16 CL        -16.4146   -8.8897   20.1652 Cl      1  UNL1       -0.0815
     17 C         -15.2346   -6.9782   18.8599 C.ar    1  UNL1        0.0266
     18 C         -17.9780   -9.6037   17.7063 C.1     1  UNL1        0.1013
     19 N         -18.9588  -10.7379   17.7443 N.1     1  UNL1       -0.1908
     20 C         -12.7493   -5.2277   16.8333 C.3     1  UNL1        0.1177
     21 C         -11.6340   -6.0065   17.4656 C.ar    1  UNL1       -0.0024
     22 C         -10.7613   -5.3608   18.5006 C.ar    1  UNL1       -0.0026
     23 C          -9.6460   -6.1396   19.1328 C.ar    1  UNL1       -0.0003
     24 C          -9.4036   -7.5640   18.7301 C.ar    1  UNL1       -0.0000
     25 C         -10.2763   -8.2096   17.6950 C.ar    1  UNL1       -0.0003
     26 C         -11.3915   -7.4309   17.0628 C.ar    1  UNL1       -0.0026
@<TRIPOS>BOND
     1     9    10    1
     2    10     2    1
     3     2     3    2
     4     2     4   am
     5     4     5    1
     6     5     6    1
     7     6     7    1
     8     7     1    1
     9     1    20    1
    10    20    21    1
    11    21    22   ar
    12    22    23   ar
    13    23    24   ar
    14    24    25   ar
    15    25    26   ar
    16     1    11    1
    17    11    12   ar
    18    12    13   ar
    19    13    14   ar
    20    14    18    1
    21    18    19    3
    22    14    15   ar
    23    15    16    1
    24    15    17   ar
    25     7     8    1
    26     8     4    1
    27    26    21   ar
    28    17    11   ar
