@<TRIPOS>MOLECULE
*****
 20 21 0 0 0
SMALL
GASTEIGER

@<TRIPOS>ATOM
      1 C          -2.3058  -19.5181   21.4871 C.2     1  UNL1        0.4051
      2 O          -1.9561  -20.7649   20.7300 O.2     1  UNL1       -0.2262
      3 N          -3.7422  -19.1870   21.7643 N.am    1  UNL1       -0.2419
      4 C          -4.9309  -20.0025   21.3493 C.3     1  UNL1        0.1014
      5 C          -6.1657  -19.3018   21.8335 C.3     1  UNL1        0.0459
      6 C          -5.7401  -18.0532   22.5478 C.2     1  UNL1       -0.0144
      7 C          -6.6521  -17.0515   23.1918 C.2     1  UNL1        0.0428
      8 C          -4.2424  -17.9823   22.5050 C.3     1  UNL1        0.1199
      9 C          -8.1376  -17.2569   23.1545 C.1     1  UNL1       -0.0582
     10 C          -9.6229  -17.4622   23.1171 C.1     1  UNL1       -0.0405
     11 C         -11.1084  -17.6676   23.0797 C.ar    1  UNL1        0.1224
     12 C         -11.8528  -17.5260   21.7852 C.ar    1  UNL1        0.0276
     13 C         -13.3381  -17.7314   21.7478 C.ar    1  UNL1        0.0034
     14 C         -14.0791  -18.0783   23.0050 C.ar    1  UNL1        0.0148
     15 C         -13.3348  -18.2199   24.2995 C.ar    1  UNL1        0.0600
     16 C         -14.0758  -18.5668   25.5567 C.3     1  UNL1        0.0521
     17 N         -11.8494  -18.0145   24.3369 N.ar    1  UNL1       -0.2414
     18 O          -1.2190  -18.6024   21.9672 O.3     1  UNL1       -0.4345
     19 C          -0.2430  -17.7651   19.7097 C.3     1  UNL1        0.0513
     20 C          -0.7449  -17.4788   21.0939 C.3     1  UNL1        0.2102
@<TRIPOS>BOND
     1    19    20    1
     2    20    18    1
     3    18     1    1
     4     1     2    2
     5     1     3   am
     6     3     4    1
     7     4     5    1
     8     5     6    1
     9     6     7    2
    10     7     9    1
    11     9    10    3
    12    10    11    1
    13    11    12   ar
    14    12    13   ar
    15    13    14   ar
    16    14    15   ar
    17    15    16    1
    18    15    17   ar
    19     6     8    1
    20     8     3    1
    21    17    11   ar
@<TRIPOS>MOLECULE
*****
 20 21 0 0 0
SMALL
GASTEIGER

@<TRIPOS>ATOM
      1 C           3.6888   -0.5794   17.7791 C.2     1  UNL1        0.4051
      2 O           3.8154   -0.9674   16.3357 O.2     1  UNL1       -0.2262
      3 N           4.3549   -1.4057   18.8390 N.am    1  UNL1       -0.2419
      4 C           5.1759   -2.6397   18.6086 C.3     1  UNL1        0.1014
      5 C           5.6456   -3.1398   19.9426 C.3     1  UNL1        0.0459
      6 C           5.1147   -2.2147   20.9974 C.2     1  UNL1       -0.0144
      7 C           5.3417   -2.3395   22.4749 C.2     1  UNL1        0.0428
      8 C           4.3171   -1.1430   20.3153 C.3     1  UNL1        0.1199
      9 C           6.1662   -3.4707   23.0141 C.1     1  UNL1       -0.0582
     10 C           6.9907   -4.6017   23.5533 C.1     1  UNL1       -0.0405
     11 C           7.8153   -5.7329   24.0926 C.ar    1  UNL1        0.1224
     12 C           8.7109   -6.5118   23.1755 C.ar    1  UNL1        0.0276
     13 C           9.5354   -7.6428   23.7148 C.ar    1  UNL1        0.0034
     14 C           9.4642   -7.9951   25.1711 C.ar    1  UNL1        0.0148
     15 C           8.5685   -7.2162   26.0882 C.ar    1  UNL1        0.0600
     16 C           8.4973   -7.5684   27.5445 C.3     1  UNL1        0.0521
     17 N           7.7441   -6.0851   25.5489 N.ar    1  UNL1       -0.2414
     18 O           2.8960    0.6348   18.1626 O.3     1  UNL1       -0.4345
     19 C           0.9096    0.0678   19.7383 C.3     1  UNL1        0.0513
     20 C           1.4197    0.5216   18.4027 C.3     1  UNL1        0.2102
@<TRIPOS>BOND
     1    19    20    1
     2    20    18    1
     3    18     1    1
     4     1     2    2
     5     1     3   am
     6     3     4    1
     7     4     5    1
     8     5     6    1
     9     6     7    2
    10     7     9    1
    11     9    10    3
    12    10    11    1
    13    11    12   ar
    14    12    13   ar
    15    13    14   ar
    16    14    15   ar
    17    15    16    1
    18    15    17   ar
    19     6     8    1
    20     8     3    1
    21    17    11   ar
@<TRIPOS>MOLECULE
*****
 20 21 0 0 0
SMALL
GASTEIGER

@<TRIPOS>ATOM
      1 C           4.3613   -1.5626   17.6088 C.2     1  UNL1        0.4051
      2 O           3.8896   -1.1106   16.2586 O.2     1  UNL1       -0.2262
      3 N           3.6847   -1.0561   18.8479 N.am    1  UNL1       -0.2419
      4 C           2.5302   -0.0995   18.8937 C.3     1  UNL1        0.1014
      5 C           2.1756    0.1306   20.3329 C.3     1  UNL1        0.0459
      6 C           3.1110   -0.6838   21.1767 C.2     1  UNL1       -0.0144
      7 C           3.1134   -0.7526   22.6751 C.2     1  UNL1        0.0428
      8 C           4.0437   -1.4171   20.2589 C.3     1  UNL1        0.1199
      9 C           2.1147    0.0414   23.4640 C.1     1  UNL1       -0.0582
     10 C           1.1160    0.8354   24.2527 C.1     1  UNL1       -0.0405
     11 C           0.1173    1.6295   25.0416 C.ar    1  UNL1        0.1224
     12 C          -0.1109    1.3191   26.4912 C.ar    1  UNL1        0.0276
     13 C          -1.1096    2.1131   27.2800 C.ar    1  UNL1        0.0034
     14 C          -1.8800    3.2175   26.6191 C.ar    1  UNL1        0.0148
     15 C          -1.6517    3.5279   25.1694 C.ar    1  UNL1        0.0600
     16 C          -2.4222    4.6323   24.5086 C.3     1  UNL1        0.0521
     17 N          -0.6531    2.7339   24.3807 N.ar    1  UNL1       -0.2414
     18 O           5.5098   -2.5211   17.7200 O.3     1  UNL1       -0.4345
     19 C           7.5717   -2.3960   19.2957 C.3     1  UNL1        0.0513
     20 C           6.8879   -2.0092   18.0179 C.3     1  UNL1        0.2102
@<TRIPOS>BOND
     1    19    20    1
     2    20    18    1
     3    18     1    1
     4     1     2    2
     5     1     3   am
     6     3     4    1
     7     4     5    1
     8     5     6    1
     9     6     7    2
    10     7     9    1
    11     9    10    3
    12    10    11    1
    13    11    12   ar
    14    12    13   ar
    15    13    14   ar
    16    14    15   ar
    17    15    16    1
    18    15    17   ar
    19     6     8    1
    20     8     3    1
    21    17    11   ar
@<TRIPOS>MOLECULE
*****
 20 21 0 0 0
SMALL
GASTEIGER

@<TRIPOS>ATOM
      1 C           5.4917   -2.5274   18.3615 C.2     1  UNL1        0.4051
      2 O           6.4849   -2.1321   17.3093 O.2     1  UNL1       -0.2262
      3 N           4.3461   -1.6172   18.6912 N.am    1  UNL1       -0.2419
      4 C           4.0654   -0.2876   18.0561 C.3     1  UNL1        0.1014
      5 C           2.8258    0.2748   18.6863 C.3     1  UNL1        0.0459
      6 C           2.3404   -0.7073   19.7110 C.2     1  UNL1       -0.0144
      7 C           1.1282   -0.5480   20.5800 C.2     1  UNL1        0.0428
      8 C           3.2800   -1.8765   19.7140 C.3     1  UNL1        0.1199
      9 C           0.2790    0.6831   20.4644 C.1     1  UNL1       -0.0582
     10 C          -0.5702    1.9141   20.3488 C.1     1  UNL1       -0.0405
     11 C          -1.4194    3.1453   20.2332 C.ar    1  UNL1        0.1224
     12 C          -0.8156    4.4300   19.7487 C.ar    1  UNL1        0.0276
     13 C          -1.6648    5.6611   19.6331 C.ar    1  UNL1        0.0034
     14 C          -3.1177    5.6073   20.0021 C.ar    1  UNL1        0.0148
     15 C          -3.7215    4.3225   20.4866 C.ar    1  UNL1        0.0600
     16 C          -5.1744    4.2688   20.8556 C.3     1  UNL1        0.0521
     17 N          -2.8723    3.0915   20.6022 N.ar    1  UNL1       -0.2414
     18 O           5.6442   -3.8331   19.0841 O.3     1  UNL1       -0.4345
     19 C           3.6389   -5.3637   19.7055 C.3     1  UNL1        0.0513
     20 C           4.7365   -4.9817   18.7571 C.3     1  UNL1        0.2102
@<TRIPOS>BOND
     1    19    20    1
     2    20    18    1
     3    18     1    1
     4     1     2    2
     5     1     3   am
     6     3     4    1
     7     4     5    1
     8     5     6    1
     9     6     7    2
    10     7     9    1
    11     9    10    3
    12    10    11    1
    13    11    12   ar
    14    12    13   ar
    15    13    14   ar
    16    14    15   ar
    17    15    16    1
    18    15    17   ar
    19     6     8    1
    20     8     3    1
    21    17    11   ar
@<TRIPOS>MOLECULE
*****
 20 21 0 0 0
SMALL
GASTEIGER

@<TRIPOS>ATOM
      1 C           2.1078   -0.0067   28.9816 C.2     1  UNL1        0.4051
      2 O           1.8408   -0.5440   30.3563 O.2     1  UNL1       -0.2262
      3 N           1.0075    0.6594   28.2100 N.am    1  UNL1       -0.2419
      4 C          -0.4027    0.8602   28.6803 C.3     1  UNL1        0.1014
      5 C          -1.1577    1.5667   27.5936 C.3     1  UNL1        0.0459
      6 C          -0.2140    1.8025   26.4516 C.2     1  UNL1       -0.0144
      7 C          -0.5496    2.4801   25.1561 C.2     1  UNL1        0.0428
      8 C           1.1240    1.2418   26.8325 C.3     1  UNL1        0.1199
      9 C          -1.9387    2.9928   24.9157 C.1     1  UNL1       -0.0582
     10 C          -3.3277    3.5055   24.6752 C.1     1  UNL1       -0.0405
     11 C          -4.7167    4.0182   24.4348 C.ar    1  UNL1        0.1224
     12 C          -5.4454    3.6484   23.1769 C.ar    1  UNL1        0.0276
     13 C          -6.8344    4.1611   22.9366 C.ar    1  UNL1        0.0034
     14 C          -7.4947    5.0435   23.9541 C.ar    1  UNL1        0.0148
     15 C          -6.7660    5.4132   25.2120 C.ar    1  UNL1        0.0600
     16 C          -7.4264    6.2956   26.2295 C.3     1  UNL1        0.0521
     17 N          -5.3771    4.9006   25.4523 N.ar    1  UNL1       -0.2414
     18 O           3.4751   -0.1356   28.3784 O.3     1  UNL1       -0.4345
     19 C           3.8959   -1.2674   26.0780 C.3     1  UNL1        0.0513
     20 C           3.8285   -1.3514   27.5741 C.3     1  UNL1        0.2102
@<TRIPOS>BOND
     1    19    20    1
     2    20    18    1
     3    18     1    1
     4     1     2    2
     5     1     3   am
     6     3     4    1
     7     4     5    1
     8     5     6    1
     9     6     7    2
    10     7     9    1
    11     9    10    3
    12    10    11    1
    13    11    12   ar
    14    12    13   ar
    15    13    14   ar
    16    14    15   ar
    17    15    16    1
    18    15    17   ar
    19     6     8    1
    20     8     3    1
    21    17    11   ar
@<TRIPOS>MOLECULE
*****
 20 21 0 0 0
SMALL
GASTEIGER

@<TRIPOS>ATOM
      1 C           8.3189   -5.6736   29.6322 C.2     1  UNL1        0.4051
      2 O           8.8809   -7.0625   29.7049 O.2     1  UNL1       -0.2262
      3 N           7.6816   -5.1878   28.3643 N.am    1  UNL1       -0.2419
      4 C           7.5343   -5.9728   27.0946 C.3     1  UNL1        0.1014
      5 C           6.8414   -5.1020   26.0888 C.3     1  UNL1        0.0459
      6 C           6.5604   -3.7787   26.7370 C.2     1  UNL1       -0.0144
      7 C           5.8797   -2.6079   26.0921 C.2     1  UNL1        0.0428
      8 C           7.0797   -3.8318   28.1432 C.3     1  UNL1        0.1199
      9 C           5.4118   -2.7024   24.6700 C.1     1  UNL1       -0.0582
     10 C           4.9439   -2.7968   23.2481 C.1     1  UNL1       -0.0405
     11 C           4.4759   -2.8913   21.8260 C.ar    1  UNL1        0.1224
     12 C           3.6816   -1.7715   21.2218 C.ar    1  UNL1        0.0276
     13 C           3.2137   -1.8660   19.7998 C.ar    1  UNL1        0.0034
     14 C           3.5402   -3.0803   18.9820 C.ar    1  UNL1        0.0148
     15 C           4.3346   -4.2001   19.5861 C.ar    1  UNL1        0.0600
     16 C           4.6610   -5.4144   18.7683 C.3     1  UNL1        0.0521
     17 N           4.8024   -4.1056   21.0081 N.ar    1  UNL1       -0.2414
     18 O           8.3942   -4.7705   30.8275 O.3     1  UNL1       -0.4345
     19 C           6.5966   -3.2960   31.9870 C.3     1  UNL1        0.0513
     20 C           7.2148   -4.6411   31.7453 C.3     1  UNL1        0.2102
@<TRIPOS>BOND
     1    19    20    1
     2    20    18    1
     3    18     1    1
     4     1     2    2
     5     1     3   am
     6     3     4    1
     7     4     5    1
     8     5     6    1
     9     6     7    2
    10     7     9    1
    11     9    10    3
    12    10    11    1
    13    11    12   ar
    14    12    13   ar
    15    13    14   ar
    16    14    15   ar
    17    15    16    1
    18    15    17   ar
    19     6     8    1
    20     8     3    1
    21    17    11   ar
@<TRIPOS>MOLECULE
*****
 20 21 0 0 0
SMALL
GASTEIGER

@<TRIPOS>ATOM
      1 C           4.4663   -1.9169   18.3681 C.2     1  UNL1        0.4051
      2 O           4.7369   -3.2076   19.0828 O.2     1  UNL1       -0.2262
      3 N           3.3241   -1.0458   18.7996 N.am    1  UNL1       -0.2419
      4 C           2.3719   -1.3326   19.9226 C.3     1  UNL1        0.1014
      5 C           1.3927   -0.1990   20.0011 C.3     1  UNL1        0.0459
      6 C           1.7398    0.7885   18.9266 C.2     1  UNL1       -0.0144
      7 C           1.0196    2.0737   18.6442 C.2     1  UNL1        0.0428
      8 C           2.9334    0.2651   18.1841 C.3     1  UNL1        0.1199
      9 C          -0.1651    2.4679   19.4755 C.1     1  UNL1       -0.0582
     10 C          -1.3498    2.8620   20.3068 C.1     1  UNL1       -0.0405
     11 C          -2.5345    3.2562   21.1382 C.ar    1  UNL1        0.1224
     12 C          -3.8970    3.3298   20.5151 C.ar    1  UNL1        0.0276
     13 C          -5.0816    3.7240   21.3464 C.ar    1  UNL1        0.0034
     14 C          -4.9038    4.0445   22.8009 C.ar    1  UNL1        0.0148
     15 C          -3.5414    3.9709   23.4241 C.ar    1  UNL1        0.0600
     16 C          -3.3636    4.2915   24.8786 C.3     1  UNL1        0.0521
     17 N          -2.3568    3.5768   22.5927 N.ar    1  UNL1       -0.2414
     18 O           5.3380   -1.4973   17.2217 O.3     1  UNL1       -0.4345
     19 C           6.5799    0.7126   16.6525 C.3     1  UNL1        0.0513
     20 C           6.4787   -0.5513   17.4539 C.3     1  UNL1        0.2102
@<TRIPOS>BOND
     1    19    20    1
     2    20    18    1
     3    18     1    1
     4     1     2    2
     5     1     3   am
     6     3     4    1
     7     4     5    1
     8     5     6    1
     9     6     7    2
    10     7     9    1
    11     9    10    3
    12    10    11    1
    13    11    12   ar
    14    12    13   ar
    15    13    14   ar
    16    14    15   ar
    17    15    16    1
    18    15    17   ar
    19     6     8    1
    20     8     3    1
    21    17    11   ar
@<TRIPOS>MOLECULE
*****
 20 21 0 0 0
SMALL
GASTEIGER

@<TRIPOS>ATOM
      1 C          -9.8723   -5.2855   18.0080 C.2     1  UNL1        0.4051
      2 O          -8.8225   -4.8180   17.0441 O.2     1  UNL1       -0.2262
      3 N         -10.9967   -4.3709   18.3942 N.am    1  UNL1       -0.2419
      4 C         -11.2020   -2.9692   17.9010 C.3     1  UNL1        0.1014
      5 C         -12.4454   -2.4292   18.5432 C.3     1  UNL1        0.0459
      6 C         -13.0085   -3.4972   19.4334 C.2     1  UNL1       -0.0144
      7 C         -14.2492   -3.3850   20.2690 C.2     1  UNL1        0.0428
      8 C         -12.1132   -4.6972   19.3413 C.3     1  UNL1        0.1199
      9 C         -15.0473   -2.1149   20.2596 C.1     1  UNL1       -0.0582
     10 C         -15.8454   -0.8449   20.2502 C.1     1  UNL1       -0.0405
     11 C         -16.6436    0.4251   20.2409 C.ar    1  UNL1        0.1224
     12 C         -16.1215    1.6338   19.5222 C.ar    1  UNL1        0.0276
     13 C         -16.9196    2.9037   19.5129 C.ar    1  UNL1        0.0034
     14 C         -18.2398    2.9650   20.2222 C.ar    1  UNL1        0.0148
     15 C         -18.7619    1.7564   20.9409 C.ar    1  UNL1        0.0600
     16 C         -20.0822    1.8177   21.6503 C.3     1  UNL1        0.0521
     17 N         -17.9638    0.4865   20.9503 N.ar    1  UNL1       -0.2414
     18 O          -9.7978   -6.6677   18.5859 O.3     1  UNL1       -0.4345
     19 C         -11.4112   -7.6547   16.8046 C.3     1  UNL1        0.0513
     20 C         -10.3000   -7.8393   17.7952 C.3     1  UNL1        0.2102
@<TRIPOS>BOND
     1    19    20    1
     2    20    18    1
     3    18     1    1
     4     1     2    2
     5     1     3   am
     6     3     4    1
     7     4     5    1
     8     5     6    1
     9     6     7    2
    10     7     9    1
    11     9    10    3
    12    10    11    1
    13    11    12   ar
    14    12    13   ar
    15    13    14   ar
    16    14    15   ar
    17    15    16    1
    18    15    17   ar
    19     6     8    1
    20     8     3    1
    21    17    11   ar
@<TRIPOS>MOLECULE
*****
 20 21 0 0 0
SMALL
GASTEIGER

@<TRIPOS>ATOM
      1 C           3.8994   -0.5071   31.0265 C.2     1  UNL1        0.4051
      2 O           2.6091   -0.0077   31.6057 O.2     1  UNL1       -0.2262
      3 N           3.9890   -0.8336   29.5652 N.am    1  UNL1       -0.2419
      4 C           2.8780   -0.7114   28.5649 C.3     1  UNL1        0.1014
      5 C           3.4075   -1.1419   27.2291 C.3     1  UNL1        0.0459
      6 C           4.8459   -1.5301   27.4039 C.2     1  UNL1       -0.0144
      7 C           5.7637   -2.0224   26.3245 C.2     1  UNL1        0.0428
      8 C           5.2052   -1.3395   28.8477 C.3     1  UNL1        0.1199
      9 C           5.2604   -2.1627   24.9184 C.1     1  UNL1       -0.0582
     10 C           4.7571   -2.3031   23.5123 C.1     1  UNL1       -0.0405
     11 C           4.2538   -2.4434   22.1062 C.ar    1  UNL1        0.1224
     12 C           3.3418   -1.4020   21.5286 C.ar    1  UNL1        0.0276
     13 C           2.8386   -1.5424   20.1226 C.ar    1  UNL1        0.0034
     14 C           3.2474   -2.7242   19.2941 C.ar    1  UNL1        0.0148
     15 C           4.1594   -3.7656   19.8717 C.ar    1  UNL1        0.0600
     16 C           4.5682   -4.9473   19.0433 C.3     1  UNL1        0.0521
     17 N           4.6626   -3.6252   21.2778 N.ar    1  UNL1       -0.2414
     18 O           5.1003   -0.6801   31.9085 O.3     1  UNL1       -0.4345
     19 C           4.3928   -2.6393   33.4613 C.3     1  UNL1        0.0513
     20 C           4.9433   -1.2551   33.2850 C.3     1  UNL1        0.2102
@<TRIPOS>BOND
     1    19    20    1
     2    20    18    1
     3    18     1    1
     4     1     2    2
     5     1     3   am
     6     3     4    1
     7     4     5    1
     8     5     6    1
     9     6     7    2
    10     7     9    1
    11     9    10    3
    12    10    11    1
    13    11    12   ar
    14    12    13   ar
    15    13    14   ar
    16    14    15   ar
    17    15    16    1
    18    15    17   ar
    19     6     8    1
    20     8     3    1
    21    17    11   ar
