@<TRIPOS>MOLECULE
*****
 22 24 0 0 0
SMALL
GASTEIGER

@<TRIPOS>ATOM
      1 C          -8.5118  -16.9857   22.4567 C.2     1  UNL1       -0.0240
      2 C          -7.9161  -18.3102   22.0811 C.2     1  UNL1       -0.0420
      3 C          -9.0308  -19.2107   21.6379 C.3     1  UNL1        0.0480
      4 C         -10.3153  -18.4429   21.7395 C.ar    1  UNL1       -0.0184
      5 C         -11.7357  -18.8183   21.4366 C.ar    1  UNL1       -0.0040
      6 C         -12.8352  -17.8185   21.6398 C.ar    1  UNL1       -0.0003
      7 C         -12.5145  -16.4433   22.1458 C.ar    1  UNL1       -0.0000
      8 C         -11.0942  -16.0680   22.4487 C.ar    1  UNL1       -0.0006
      9 C          -9.9946  -17.0678   22.2455 C.ar    1  UNL1       -0.0078
     10 C          -7.7572  -15.7893   22.9557 C.3     1  UNL1        0.0726
     11 C          -4.9081  -15.6273   23.8815 C.3     1  UNL1        0.0534
     12 C          -6.0257  -15.5713   24.8804 C.ar    1  UNL1        0.0732
     13 N          -5.7188  -15.4343   26.3422 N.ar    1  UNL1       -0.2453
     14 C          -6.8362  -15.3783   27.3412 C.ar    1  UNL1        0.1191
     15 C          -8.2608  -15.4593   26.8784 C.ar    1  UNL1        0.1191
     16 N          -8.5677  -15.5963   25.4166 N.ar    1  UNL1       -0.2450
     17 C          -7.4502  -15.6523   24.4175 C.ar    1  UNL1        0.0769
     18 C          -6.4612  -18.6707   22.1387 C.3     1  UNL1        0.0394
     19 C          -5.7208  -19.0048   20.8777 C.3     1  UNL1        0.0765
     20 N          -4.2368  -18.7998   20.8025 N.3     1  UNL1       -0.2700
     21 C          -3.5319  -18.8994   19.4822 C.3     1  UNL1        0.0897
     22 C          -3.4578  -18.4952   22.0476 C.3     1  UNL1        0.0897
@<TRIPOS>BOND
     1    11    12    1
     2    12    13   ar
     3    13    14   ar
     4    14    15   ar
     5    15    16   ar
     6    16    17   ar
     7    17    10    1
     8    10     1    1
     9     1     2    2
    10     2    18    1
    11    18    19    1
    12    19    20    1
    13    20    21    1
    14    20    22    1
    15     2     3    1
    16     3     4    1
    17     4     5   ar
    18     5     6   ar
    19     6     7   ar
    20     7     8   ar
    21     8     9   ar
    22    17    12   ar
    23     9     1    1
    24     9     4   ar
@<TRIPOS>MOLECULE
*****
 22 24 0 0 0
SMALL
GASTEIGER

@<TRIPOS>ATOM
      1 C          -8.5939  -17.3981   23.4393 C.2     1  UNL1       -0.0240
      2 C          -9.7615  -18.1525   24.0027 C.2     1  UNL1       -0.0420
      3 C          -9.8289  -17.8706   25.4744 C.3     1  UNL1        0.0480
      4 C          -8.7029  -16.9420   25.8206 C.ar    1  UNL1       -0.0184
      5 C          -8.2741  -16.3247   27.1187 C.ar    1  UNL1       -0.0040
      6 C          -7.0819  -15.4153   27.1589 C.ar    1  UNL1       -0.0003
      7 C          -6.3186  -15.1233   25.9011 C.ar    1  UNL1       -0.0000
      8 C          -6.7474  -15.7406   24.6031 C.ar    1  UNL1       -0.0006
      9 C          -7.9396  -16.6500   24.5628 C.ar    1  UNL1       -0.0078
     10 C          -8.1571  -17.3927   22.0043 C.3     1  UNL1        0.0726
     11 C          -8.8654  -19.4562   19.9451 C.3     1  UNL1        0.0534
     12 C          -7.4740  -19.3998   20.5027 C.ar    1  UNL1        0.0732
     13 N          -6.4368  -20.3752   20.0307 N.ar    1  UNL1       -0.2453
     14 C          -5.0454  -20.3189   20.5883 C.ar    1  UNL1        0.1191
     15 C          -4.6912  -19.2871   21.6179 C.ar    1  UNL1        0.1191
     16 N          -5.7285  -18.3118   22.0899 N.ar    1  UNL1       -0.2450
     17 C          -7.1199  -18.3681   21.5323 C.ar    1  UNL1        0.0769
     18 C         -10.6974  -19.0340   23.2300 C.3     1  UNL1        0.0394
     19 C         -11.9794  -18.4743   22.6883 C.3     1  UNL1        0.0765
     20 N         -11.9659  -17.2017   21.8944 N.3     1  UNL1       -0.2700
     21 C         -12.2771  -15.8963   22.5647 C.3     1  UNL1        0.0897
     22 C         -11.6412  -17.2344   20.4304 C.3     1  UNL1        0.0897
@<TRIPOS>BOND
     1    11    12    1
     2    12    13   ar
     3    13    14   ar
     4    14    15   ar
     5    15    16   ar
     6    16    17   ar
     7    17    10    1
     8    10     1    1
     9     1     2    2
    10     2    18    1
    11    18    19    1
    12    19    20    1
    13    20    21    1
    14    20    22    1
    15     2     3    1
    16     3     4    1
    17     4     5   ar
    18     5     6   ar
    19     6     7   ar
    20     7     8   ar
    21     8     9   ar
    22    17    12   ar
    23     9     1    1
    24     9     4   ar
@<TRIPOS>MOLECULE
*****
 22 24 0 0 0
SMALL
GASTEIGER

@<TRIPOS>ATOM
      1 C          -7.8061  -18.7498   22.2707 C.2     1  UNL1       -0.0240
      2 C          -7.4003  -17.5872   23.1274 C.2     1  UNL1       -0.0420
      3 C          -5.9106  -17.4400   23.0335 C.3     1  UNL1        0.0480
      4 C          -5.3956  -18.5115   22.1187 C.ar    1  UNL1       -0.0184
      5 C          -4.0112  -18.8546   21.6542 C.ar    1  UNL1       -0.0040
      6 C          -3.7984  -20.0072   20.7182 C.ar    1  UNL1       -0.0003
      7 C          -4.9700  -20.8167   20.2468 C.ar    1  UNL1       -0.0000
      8 C          -6.3543  -20.4736   20.7114 C.ar    1  UNL1       -0.0006
      9 C          -6.5671  -19.3210   21.6473 C.ar    1  UNL1       -0.0078
     10 C          -9.2052  -19.2528   22.0723 C.3     1  UNL1        0.0726
     11 C         -11.5380  -18.7729   23.8966 C.3     1  UNL1        0.0534
     12 C         -11.4592  -18.0636   22.5773 C.ar    1  UNL1        0.0732
     13 N         -12.5469  -17.1143   22.1700 N.ar    1  UNL1       -0.2453
     14 C         -12.4683  -16.4050   20.8507 C.ar    1  UNL1        0.1191
     15 C         -11.3019  -16.6449   19.9385 C.ar    1  UNL1        0.1191
     16 N         -10.2142  -17.5942   20.3457 N.ar    1  UNL1       -0.2450
     17 C         -10.2929  -18.3036   21.6651 C.ar    1  UNL1        0.0769
     18 C          -8.3225  -16.7236   23.9360 C.3     1  UNL1        0.0394
     19 C          -7.8177  -15.4460   24.5383 C.3     1  UNL1        0.0765
     20 N          -7.2395  -15.4464   25.9224 N.3     1  UNL1       -0.2700
     21 C          -8.1448  -15.5559   27.1134 C.3     1  UNL1        0.0897
     22 C          -5.7560  -15.3372   26.1155 C.3     1  UNL1        0.0897
@<TRIPOS>BOND
     1    11    12    1
     2    12    13   ar
     3    13    14   ar
     4    14    15   ar
     5    15    16   ar
     6    16    17   ar
     7    17    10    1
     8    10     1    1
     9     1     2    2
    10     2    18    1
    11    18    19    1
    12    19    20    1
    13    20    21    1
    14    20    22    1
    15     2     3    1
    16     3     4    1
    17     4     5   ar
    18     5     6   ar
    19     6     7   ar
    20     7     8   ar
    21     8     9   ar
    22    17    12   ar
    23     9     1    1
    24     9     4   ar
@<TRIPOS>MOLECULE
*****
 22 24 0 0 0
SMALL
GASTEIGER

@<TRIPOS>ATOM
      1 C          -7.3435  -18.1640   22.2306 C.2     1  UNL1       -0.0240
      2 C          -7.3525  -16.8098   22.8757 C.2     1  UNL1       -0.0420
      3 C          -8.6188  -16.1135   22.4738 C.3     1  UNL1        0.0480
      4 C          -9.3925  -17.0373   21.5805 C.ar    1  UNL1       -0.0184
      5 C         -10.7128  -16.8882   20.8844 C.ar    1  UNL1       -0.0040
      6 C         -11.2449  -18.0064   20.0381 C.ar    1  UNL1       -0.0003
      7 C         -10.4567  -19.2738   19.8878 C.ar    1  UNL1       -0.0000
      8 C          -9.1364  -19.4229   20.5838 C.ar    1  UNL1       -0.0006
      9 C          -8.6043  -18.3046   21.4302 C.ar    1  UNL1       -0.0078
     10 C          -6.2634  -19.1964   22.3628 C.3     1  UNL1        0.0726
     11 C          -5.8903  -21.1509   20.1176 C.3     1  UNL1        0.0534
     12 C          -4.8550  -20.0961   20.3736 C.ar    1  UNL1        0.0732
     13 N          -3.6331  -20.0185   19.5071 N.ar    1  UNL1       -0.2453
     14 C          -2.5978  -18.9638   19.7630 C.ar    1  UNL1        0.1191
     15 C          -2.7843  -17.9865   20.8857 C.ar    1  UNL1        0.1191
     16 N          -4.0062  -18.0641   21.7522 N.ar    1  UNL1       -0.2450
     17 C          -5.0416  -19.1189   21.4963 C.ar    1  UNL1        0.0769
     18 C          -6.2830  -16.2503   23.7661 C.3     1  UNL1        0.0394
     19 C          -6.6077  -15.1415   24.7228 C.3     1  UNL1        0.0765
     20 N          -7.2702  -15.4510   26.0325 N.3     1  UNL1       -0.2700
     21 C          -8.7637  -15.5696   26.1079 C.3     1  UNL1        0.0897
     22 C          -6.4394  -15.6417   27.2667 C.3     1  UNL1        0.0897
@<TRIPOS>BOND
     1    11    12    1
     2    12    13   ar
     3    13    14   ar
     4    14    15   ar
     5    15    16   ar
     6    16    17   ar
     7    17    10    1
     8    10     1    1
     9     1     2    2
    10     2    18    1
    11    18    19    1
    12    19    20    1
    13    20    21    1
    14    20    22    1
    15     2     3    1
    16     3     4    1
    17     4     5   ar
    18     5     6   ar
    19     6     7   ar
    20     7     8   ar
    21     8     9   ar
    22    17    12   ar
    23     9     1    1
    24     9     4   ar
@<TRIPOS>MOLECULE
*****
 22 24 0 0 0
SMALL
GASTEIGER

@<TRIPOS>ATOM
      1 C          -6.3144  -18.3641   22.1609 C.2     1  UNL1       -0.0240
      2 C          -6.7505  -17.1787   22.9701 C.2     1  UNL1       -0.0420
      3 C          -8.1535  -16.8334   22.5672 C.3     1  UNL1        0.0480
      4 C          -8.5845  -17.8053   21.5091 C.ar    1  UNL1       -0.0184
      5 C          -9.8651  -17.9511   20.7418 C.ar    1  UNL1       -0.0040
      6 C         -10.0091  -19.0429   19.7235 C.ar    1  UNL1       -0.0003
      7 C          -8.8725  -19.9890   19.4723 C.ar    1  UNL1       -0.0000
      8 C          -7.5919  -19.8432   20.2396 C.ar    1  UNL1       -0.0006
      9 C          -7.4479  -18.7514   21.2580 C.ar    1  UNL1       -0.0078
     10 C          -4.9793  -19.0431   22.2406 C.3     1  UNL1        0.0726
     11 C          -3.9544  -20.4751   19.8118 C.3     1  UNL1        0.0534
     12 C          -3.2975  -19.2058   20.2671 C.ar    1  UNL1        0.0732
     13 N          -2.1281  -18.6524   19.5079 N.ar    1  UNL1       -0.2453
     14 C          -1.4711  -17.3831   19.9631 C.ar    1  UNL1        0.1191
     15 C          -1.9835  -16.6671   21.1775 C.ar    1  UNL1        0.1191
     16 N          -3.1529  -17.2204   21.9366 N.ar    1  UNL1       -0.2450
     17 C          -3.8099  -18.4898   21.4815 C.ar    1  UNL1        0.0769
     18 C          -5.9280  -16.4642   24.0010 C.3     1  UNL1        0.0394
     19 C          -6.4779  -15.2505   24.6898 C.3     1  UNL1        0.0765
     20 N          -7.2749  -15.4007   25.9516 N.3     1  UNL1       -0.2700
     21 C          -8.7667  -15.5422   25.8840 C.3     1  UNL1        0.0897
     22 C          -6.5802  -15.4095   27.2809 C.3     1  UNL1        0.0897
@<TRIPOS>BOND
     1    11    12    1
     2    12    13   ar
     3    13    14   ar
     4    14    15   ar
     5    15    16   ar
     6    16    17   ar
     7    17    10    1
     8    10     1    1
     9     1     2    2
    10     2    18    1
    11    18    19    1
    12    19    20    1
    13    20    21    1
    14    20    22    1
    15     2     3    1
    16     3     4    1
    17     4     5   ar
    18     5     6   ar
    19     6     7   ar
    20     7     8   ar
    21     8     9   ar
    22    17    12   ar
    23     9     1    1
    24     9     4   ar
@<TRIPOS>MOLECULE
*****
 22 24 0 0 0
SMALL
GASTEIGER

@<TRIPOS>ATOM
      1 C          -7.2393  -18.5213   22.1855 C.2     1  UNL1       -0.0240
      2 C          -5.7859  -18.8305   21.9808 C.2     1  UNL1       -0.0420
      3 C          -4.9853  -17.8420   22.7757 C.3     1  UNL1        0.0480
      4 C          -5.9439  -16.9219   23.4717 C.ar    1  UNL1       -0.0184
      5 C          -5.7283  -15.7560   24.3905 C.ar    1  UNL1       -0.0040
      6 C          -6.9058  -15.0099   24.9444 C.ar    1  UNL1       -0.0003
      7 C          -8.2989  -15.4298   24.5797 C.ar    1  UNL1       -0.0000
      8 C          -8.5145  -16.5957   23.6609 C.ar    1  UNL1       -0.0006
      9 C          -7.3370  -17.3417   23.1069 C.ar    1  UNL1       -0.0078
     10 C          -8.3926  -19.2617   21.5758 C.3     1  UNL1        0.0726
     11 C         -10.5953  -19.9983   23.4747 C.3     1  UNL1        0.0534
     12 C         -10.8349  -18.9675   22.4118 C.ar    1  UNL1        0.0732
     13 N         -12.1758  -18.3048   22.2982 N.ar    1  UNL1       -0.2453
     14 C         -12.4154  -17.2740   21.2353 C.ar    1  UNL1        0.1191
     15 C         -11.3140  -16.9056   20.2858 C.ar    1  UNL1        0.1191
     16 N          -9.9731  -17.5682   20.3994 N.ar    1  UNL1       -0.2450
     17 C          -9.7335  -18.5992   21.4624 C.ar    1  UNL1        0.0769
     18 C          -5.2305  -19.9344   21.1305 C.3     1  UNL1        0.0394
     19 C          -4.3932  -19.6074   19.9297 C.3     1  UNL1        0.0765
     20 N          -2.9546  -19.2189   20.1018 N.3     1  UNL1       -0.2700
     21 C          -2.2881  -18.3406   19.0847 C.3     1  UNL1        0.0897
     22 C          -2.1825  -19.7087   21.2908 C.3     1  UNL1        0.0897
@<TRIPOS>BOND
     1    11    12    1
     2    12    13   ar
     3    13    14   ar
     4    14    15   ar
     5    15    16   ar
     6    16    17   ar
     7    17    10    1
     8    10     1    1
     9     1     2    2
    10     2    18    1
    11    18    19    1
    12    19    20    1
    13    20    21    1
    14    20    22    1
    15     2     3    1
    16     3     4    1
    17     4     5   ar
    18     5     6   ar
    19     6     7   ar
    20     7     8   ar
    21     8     9   ar
    22    17    12   ar
    23     9     1    1
    24     9     4   ar
@<TRIPOS>MOLECULE
*****
 22 24 0 0 0
SMALL
GASTEIGER

@<TRIPOS>ATOM
      1 C          -7.3102  -18.3240   22.0210 C.2     1  UNL1       -0.0240
      2 C          -7.7434  -17.0707   22.7222 C.2     1  UNL1       -0.0420
      3 C          -9.0914  -16.6841   22.1898 C.3     1  UNL1        0.0480
      4 C          -9.4913  -17.6984   21.1596 C.ar    1  UNL1       -0.0184
      5 C         -10.7156  -17.8300   20.3030 C.ar    1  UNL1       -0.0040
      6 C         -10.8390  -18.9752   19.3421 C.ar    1  UNL1       -0.0003
      7 C          -9.7381  -19.9887   19.2378 C.ar    1  UNL1       -0.0000
      8 C          -8.5138  -19.8571   20.0944 C.ar    1  UNL1       -0.0006
      9 C          -8.3904  -18.7119   21.0552 C.ar    1  UNL1       -0.0078
     10 C          -6.0228  -19.0601   22.2460 C.3     1  UNL1        0.0726
     11 C          -3.6627  -17.8922   23.6834 C.3     1  UNL1        0.0534
     12 C          -3.6134  -18.0892   22.1972 C.ar    1  UNL1        0.0732
     13 N          -2.3842  -17.7023   21.4297 N.ar    1  UNL1       -0.2453
     14 C          -2.3349  -17.8993   19.9436 C.ar    1  UNL1        0.1191
     15 C          -3.5149  -18.4832   19.2248 C.ar    1  UNL1        0.1191
     16 N          -4.7442  -18.8702   19.9923 N.ar    1  UNL1       -0.2450
     17 C          -4.7935  -18.6732   21.4786 C.ar    1  UNL1        0.0769
     18 C          -6.9653  -16.3335   23.7715 C.3     1  UNL1        0.0394
     19 C          -7.6806  -15.4672   24.7654 C.3     1  UNL1        0.0765
     20 N          -7.2252  -15.4317   26.1941 N.3     1  UNL1       -0.2700
     21 C          -5.7612  -15.4864   26.5163 C.3     1  UNL1        0.0897
     22 C          -8.2338  -15.3415   27.3007 C.3     1  UNL1        0.0897
@<TRIPOS>BOND
     1    11    12    1
     2    12    13   ar
     3    13    14   ar
     4    14    15   ar
     5    15    16   ar
     6    16    17   ar
     7    17    10    1
     8    10     1    1
     9     1     2    2
    10     2    18    1
    11    18    19    1
    12    19    20    1
    13    20    21    1
    14    20    22    1
    15     2     3    1
    16     3     4    1
    17     4     5   ar
    18     5     6   ar
    19     6     7   ar
    20     7     8   ar
    21     8     9   ar
    22    17    12   ar
    23     9     1    1
    24     9     4   ar
@<TRIPOS>MOLECULE
*****
 22 24 0 0 0
SMALL
GASTEIGER

@<TRIPOS>ATOM
      1 C          -7.0324  -18.5476   21.8660 C.2     1  UNL1       -0.0240
      2 C          -6.7045  -17.4845   22.8720 C.2     1  UNL1       -0.0420
      3 C          -5.2145  -17.4512   23.0422 C.3     1  UNL1        0.0480
      4 C          -4.6216  -18.4938   22.1414 C.ar    1  UNL1       -0.0184
      5 C          -3.2039  -18.9136   21.8892 C.ar    1  UNL1       -0.0040
      6 C          -2.9096  -20.0111   20.9100 C.ar    1  UNL1       -0.0003
      7 C          -4.0331  -20.6888   20.1830 C.ar    1  UNL1       -0.0000
      8 C          -5.4509  -20.2689   20.4352 C.ar    1  UNL1       -0.0006
      9 C          -5.7451  -19.1714   21.4144 C.ar    1  UNL1       -0.0078
     10 C          -8.4063  -18.9214   21.3942 C.3     1  UNL1        0.0726
     11 C         -10.8528  -17.2970   20.7805 C.3     1  UNL1        0.0534
     12 C         -10.7816  -18.0963   22.0478 C.ar    1  UNL1        0.0732
     13 N         -11.9337  -18.0835   23.0083 N.ar    1  UNL1       -0.2453
     14 C         -11.8627  -18.8828   24.2756 C.ar    1  UNL1        0.1191
     15 C         -10.6395  -19.6950   24.5825 C.ar    1  UNL1        0.1191
     16 N          -9.4874  -19.7078   23.6220 N.ar    1  UNL1       -0.2450
     17 C          -9.5584  -18.9085   22.3546 C.ar    1  UNL1        0.0769
     18 C          -7.6929  -16.6084   23.5830 C.3     1  UNL1        0.0394
     19 C          -7.2283  -15.3608   24.2740 C.3     1  UNL1        0.0765
     20 N          -6.8516  -15.4032   25.7253 N.3     1  UNL1       -0.2700
     21 C          -7.9170  -15.5328   26.7732 C.3     1  UNL1        0.0897
     22 C          -5.4095  -15.3160   26.1287 C.3     1  UNL1        0.0897
@<TRIPOS>BOND
     1    11    12    1
     2    12    13   ar
     3    13    14   ar
     4    14    15   ar
     5    15    16   ar
     6    16    17   ar
     7    17    10    1
     8    10     1    1
     9     1     2    2
    10     2    18    1
    11    18    19    1
    12    19    20    1
    13    20    21    1
    14    20    22    1
    15     2     3    1
    16     3     4    1
    17     4     5   ar
    18     5     6   ar
    19     6     7   ar
    20     7     8   ar
    21     8     9   ar
    22    17    12   ar
    23     9     1    1
    24     9     4   ar
@<TRIPOS>MOLECULE
*****
 22 24 0 0 0
SMALL
GASTEIGER

@<TRIPOS>ATOM
      1 C          -7.6347  -19.2499   21.4623 C.2     1  UNL1       -0.0240
      2 C          -8.1392  -19.5293   20.0776 C.2     1  UNL1       -0.0420
      3 C          -6.9590  -19.8574   19.2118 C.3     1  UNL1        0.0480
      4 C          -5.7252  -19.7808   20.0615 C.ar    1  UNL1       -0.0184
      5 C          -4.2755  -20.0045   19.7483 C.ar    1  UNL1       -0.0040
      6 C          -3.2433  -19.8527   20.8260 C.ar    1  UNL1       -0.0003
      7 C          -3.6609  -19.4772   22.2169 C.ar    1  UNL1       -0.0000
      8 C          -5.1107  -19.2536   22.5301 C.ar    1  UNL1       -0.0006
      9 C          -6.1428  -19.4054   21.4524 C.ar    1  UNL1       -0.0078
     10 C          -8.4747  -18.8800   22.6488 C.3     1  UNL1        0.0726
     11 C          -9.8577  -18.2881   25.2444 C.3     1  UNL1        0.0534
     12 C          -8.9913  -17.2460   24.6015 C.ar    1  UNL1        0.0732
     13 N          -8.8163  -15.9079   25.2564 N.ar    1  UNL1       -0.2453
     14 C          -7.9499  -14.8658   24.6136 C.ar    1  UNL1        0.1191
     15 C          -7.2584  -15.1617   23.3158 C.ar    1  UNL1        0.1191
     16 N          -7.4333  -16.4998   22.6609 N.ar    1  UNL1       -0.2450
     17 C          -8.2998  -17.5420   23.3037 C.ar    1  UNL1        0.0769
     18 C          -9.5722  -19.4878   19.6362 C.3     1  UNL1        0.0394
     19 C         -10.6717  -19.4915   20.6565 C.3     1  UNL1        0.0765
     20 N         -11.4329  -18.2313   20.9434 N.3     1  UNL1       -0.2700
     21 C         -11.4247  -17.1075   19.9499 C.3     1  UNL1        0.0897
     22 C         -12.2022  -18.0948   22.2238 C.3     1  UNL1        0.0897
@<TRIPOS>BOND
     1    11    12    1
     2    12    13   ar
     3    13    14   ar
     4    14    15   ar
     5    15    16   ar
     6    16    17   ar
     7    17    10    1
     8    10     1    1
     9     1     2    2
    10     2    18    1
    11    18    19    1
    12    19    20    1
    13    20    21    1
    14    20    22    1
    15     2     3    1
    16     3     4    1
    17     4     5   ar
    18     5     6   ar
    19     6     7   ar
    20     7     8   ar
    21     8     9   ar
    22    17    12   ar
    23     9     1    1
    24     9     4   ar
