@<TRIPOS>MOLECULE
*****
 39 43 0 0 0
SMALL
GASTEIGER

@<TRIPOS>ATOM
      1 N          -9.0280  -17.6120   21.2806 N.3     1  UNL1       -0.2679
      2 C         -10.4891  -17.2777   21.3386 C.3     1  UNL1        0.0978
      3 C         -11.1187  -16.4738   20.2399 C.3     1  UNL1        0.0224
      4 C         -12.5799  -16.1395   20.2978 C.3     1  UNL1        0.0065
      5 C         -13.4114  -16.6092   21.4545 C.3     1  UNL1        0.0277
      6 C         -12.7817  -17.4131   22.5533 C.ar    1  UNL1       -0.0073
      7 C         -13.6132  -17.8828   23.7100 C.ar    1  UNL1       -0.0015
      8 C         -12.9836  -18.6867   24.8087 C.ar    1  UNL1        0.0203
      9 C         -11.5224  -19.0210   24.7508 C.ar    1  UNL1        0.0985
     10 N         -10.6909  -18.5513   23.5941 N.ar    1  UNL1       -0.2471
     11 C         -11.3206  -17.7474   22.4953 C.ar    1  UNL1        0.0695
     12 C          -8.5912  -19.0276   21.0458 C.3     1  UNL1        0.0725
     13 C          -7.3368  -19.5418   21.6880 C.3     1  UNL1        0.0187
     14 C          -6.3386  -20.3109   20.8743 C.3     1  UNL1        0.0158
     15 C          -6.5610  -19.3787   19.7204 C.3     1  UNL1        0.0014
     16 C          -6.1162  -21.2430   22.0283 C.3     1  UNL1        0.0014
     17 C          -5.3404  -21.0799   20.0607 C.3     1  UNL1        0.0685
     18 N          -3.8894  -21.0613   20.4406 N.3     1  UNL1       -0.2985
     19 H          -3.8099  -21.5645   21.3242 H       1  UNL1        0.1232
     20 C          -1.7273  -15.9642   21.9193 C.3     1  UNL1        0.0000
     21 C          -1.7561  -17.1365   20.9840 C.3     1  UNL1        0.0001
     22 C          -0.6954  -16.3044   20.3262 C.3     1  UNL1        0.0000
     23 C          -1.4165  -18.0198   19.8202 C.3     1  UNL1        0.0014
     24 C          -2.1276  -19.3281   19.6391 C.3     1  UNL1        0.0157
     25 C          -3.1783  -19.7530   20.6217 C.3     1  UNL1        0.0540
     26 C          -3.5179  -18.8696   21.7855 C.3     1  UNL1        0.0157
     27 C          -2.8068  -17.5614   21.9666 C.3     1  UNL1        0.0014
     28 C          -8.0036  -16.5306   21.4574 C.3     1  UNL1        0.0886
     29 C          -7.4911  -16.1998   22.8278 C.3     1  UNL1        0.0748
     30 C          -8.4556  -15.9322   23.9449 C.3     1  UNL1        0.0432
     31 C          -7.9431  -15.6014   25.3153 C.ar    1  UNL1       -0.0234
     32 C          -8.9077  -15.3338   26.4324 C.ar    1  UNL1       -0.0045
     33 C          -8.3951  -15.0030   27.8027 C.ar    1  UNL1       -0.0003
     34 C          -6.9180  -14.9398   28.0560 C.ar    1  UNL1       -0.0003
     35 C          -5.9534  -15.2074   26.9389 C.ar    1  UNL1       -0.0032
     36 C          -6.4660  -15.5382   25.5686 C.ar    1  UNL1       -0.0103
     37 C          -5.5014  -15.8059   24.4514 C.3     1  UNL1        0.0953
     38 N          -6.0140  -16.1366   23.0811 N.3     1  UNL1       -0.2934
     39 H          -5.6341  -17.0514   22.8375 H       1  UNL1        0.1236
@<TRIPOS>BOND
     1    20    21    1
     2    21    22    1
     3    21    23    1
     4    23    24    1
     5    24    25    1
     6    25    18    1
     7    18    17    1
     8    17    14    1
     9    14    15    1
    10    14    16    1
    11    14    13    1
    12    13    12    1
    13    12     1    1
    14     1    28    1
    15    29    28    1
    16    29    30    1
    17    30    31    1
    18    31    32   ar
    19    32    33   ar
    20    33    34   ar
    21    34    35   ar
    22    35    36   ar
    23    36    37    1
    24    37    38    1
    25     2     1    1
    26     2     3    1
    27     3     4    1
    28     4     5    1
    29     5     6    1
    30     6     7   ar
    31     7     8   ar
    32     8     9   ar
    33     9    10   ar
    34    10    11   ar
    35    25    26    1
    36    26    27    1
    37    27    21    1
    38    38    29    1
    39    11     2    1
    40    36    31   ar
    41    11     6   ar
    42    18    19    1
    43    38    39    1
@<TRIPOS>MOLECULE
*****
 39 43 0 0 0
SMALL
GASTEIGER

@<TRIPOS>ATOM
      1 N          -9.7886  -18.5472   24.4262 N.3     1  UNL1       -0.2679
      2 C         -11.1866  -18.2521   23.9695 C.3     1  UNL1        0.0978
      3 C         -12.3558  -18.7009   24.7952 C.3     1  UNL1        0.0224
      4 C         -13.7538  -18.4059   24.3385 C.3     1  UNL1        0.0065
      5 C         -13.9826  -17.6621   23.0562 C.3     1  UNL1        0.0277
      6 C         -12.8135  -17.2134   22.2305 C.ar    1  UNL1       -0.0073
      7 C         -13.0424  -16.4696   20.9481 C.ar    1  UNL1       -0.0015
      8 C         -11.8733  -16.0208   20.1225 C.ar    1  UNL1        0.0203
      9 C         -10.4752  -16.3159   20.5791 C.ar    1  UNL1        0.0985
     10 N         -10.2464  -17.0596   21.8614 N.ar    1  UNL1       -0.2471
     11 C         -11.4155  -17.5084   22.6872 C.ar    1  UNL1        0.0695
     12 C          -9.1480  -17.6934   25.4800 C.3     1  UNL1        0.0725
     13 C          -8.8866  -16.2409   25.2120 C.3     1  UNL1        0.0187
     14 C          -7.4857  -15.7078   25.2693 C.3     1  UNL1        0.0158
     15 C          -7.6019  -15.2494   23.8459 C.3     1  UNL1        0.0014
     16 C          -7.3696  -16.1663   26.6928 C.3     1  UNL1        0.0014
     17 C          -6.0849  -15.1748   25.3267 C.3     1  UNL1        0.0685
     18 N          -5.3647  -14.8205   24.0595 N.3     1  UNL1       -0.2985
     19 H          -6.0800  -14.6202   23.3604 H       1  UNL1        0.1232
     20 C          -2.1827  -19.2229   22.2332 C.3     1  UNL1        0.0000
     21 C          -2.5131  -17.7603   22.1948 C.3     1  UNL1        0.0001
     22 C          -1.3874  -17.7990   21.2043 C.3     1  UNL1        0.0000
     23 C          -2.4527  -16.3111   21.8125 C.3     1  UNL1        0.0014
     24 C          -3.4032  -15.3312   22.4341 C.3     1  UNL1        0.0157
     25 C          -4.4142  -15.8004   23.4379 C.3     1  UNL1        0.0540
     26 C          -4.4746  -17.2496   23.8202 C.3     1  UNL1        0.0157
     27 C          -3.5242  -18.2296   23.1987 C.3     1  UNL1        0.0014
     28 C          -9.0313  -19.6959   23.8290 C.3     1  UNL1        0.0886
     29 C          -7.9762  -19.4414   22.7935 C.3     1  UNL1        0.0748
     30 C          -7.0929  -20.5622   22.3315 C.3     1  UNL1        0.0432
     31 C          -6.0378  -20.3076   21.2960 C.ar    1  UNL1       -0.0234
     32 C          -5.1545  -21.4284   20.8340 C.ar    1  UNL1       -0.0045
     33 C          -4.0995  -21.1738   19.7986 C.ar    1  UNL1       -0.0003
     34 C          -3.9278  -19.7984   19.2253 C.ar    1  UNL1       -0.0003
     35 C          -4.8110  -18.6776   19.6873 C.ar    1  UNL1       -0.0032
     36 C          -5.8660  -18.9322   20.7227 C.ar    1  UNL1       -0.0103
     37 C          -6.7494  -17.8113   21.1848 C.3     1  UNL1        0.0953
     38 N          -7.8044  -18.0659   22.2202 N.3     1  UNL1       -0.2934
     39 H          -8.6975  -17.8084   21.8001 H       1  UNL1        0.1236
@<TRIPOS>BOND
     1    20    21    1
     2    21    22    1
     3    21    23    1
     4    23    24    1
     5    24    25    1
     6    25    18    1
     7    18    17    1
     8    17    14    1
     9    14    15    1
    10    14    16    1
    11    14    13    1
    12    13    12    1
    13    12     1    1
    14     1    28    1
    15    29    28    1
    16    29    30    1
    17    30    31    1
    18    31    32   ar
    19    32    33   ar
    20    33    34   ar
    21    34    35   ar
    22    35    36   ar
    23    36    37    1
    24    37    38    1
    25     2     1    1
    26     2     3    1
    27     3     4    1
    28     4     5    1
    29     5     6    1
    30     6     7   ar
    31     7     8   ar
    32     8     9   ar
    33     9    10   ar
    34    10    11   ar
    35    25    26    1
    36    26    27    1
    37    27    21    1
    38    38    29    1
    39    11     2    1
    40    36    31   ar
    41    11     6   ar
    42    18    19    1
    43    38    39    1
@<TRIPOS>MOLECULE
*****
 39 43 0 0 0
SMALL
GASTEIGER

@<TRIPOS>ATOM
      1 N          -9.2665  -18.1426   21.1657 N.3     1  UNL1       -0.2679
      2 C          -9.7512  -18.8624   22.3891 C.3     1  UNL1        0.0978
      3 C          -8.9010  -19.9247   23.0205 C.3     1  UNL1        0.0224
      4 C          -9.3858  -20.6445   24.2440 C.3     1  UNL1        0.0065
      5 C         -10.7207  -20.3021   24.8361 C.3     1  UNL1        0.0277
      6 C         -11.5709  -19.2398   24.2047 C.ar    1  UNL1       -0.0073
      7 C         -12.9059  -18.8973   24.7968 C.ar    1  UNL1       -0.0015
      8 C         -13.7561  -17.8350   24.1654 C.ar    1  UNL1        0.0203
      9 C         -13.2713  -17.1152   22.9419 C.ar    1  UNL1        0.0985
     10 N         -11.9364  -17.4576   22.3498 N.ar    1  UNL1       -0.2471
     11 C         -11.0861  -18.5200   22.9812 C.ar    1  UNL1        0.0695
     12 C          -9.4352  -18.7667   19.8121 C.3     1  UNL1        0.0725
     13 C          -8.2355  -19.2606   19.0591 C.3     1  UNL1        0.0187
     14 C          -7.2293  -20.1376   19.7434 C.3     1  UNL1        0.0158
     15 C          -7.9349  -21.3541   19.2218 C.3     1  UNL1        0.0014
     16 C          -6.5237  -18.9211   20.2651 C.3     1  UNL1        0.0014
     17 C          -6.2231  -21.0147   20.4277 C.3     1  UNL1        0.0685
     18 N          -4.7926  -21.0083   19.9764 N.3     1  UNL1       -0.2985
     19 H          -4.3579  -21.8458   20.3637 H       1  UNL1        0.1232
     20 C          -1.7631  -16.6855   22.2074 C.3     1  UNL1        0.0000
     21 C          -2.1156  -17.5486   21.0324 C.3     1  UNL1        0.0001
     22 C          -1.1011  -16.6450   20.3967 C.3     1  UNL1        0.0000
     23 C          -2.1158  -18.0980   19.6366 C.3     1  UNL1        0.0014
     24 C          -3.0082  -19.2512   19.2846 C.3     1  UNL1        0.0157
     25 C          -3.9002  -19.8551   20.3284 C.3     1  UNL1        0.0540
     26 C          -3.9000  -19.3057   21.7242 C.3     1  UNL1        0.0157
     27 C          -3.0077  -18.1526   22.0762 C.3     1  UNL1        0.0014
     28 C          -8.6130  -16.7988   21.2957 C.3     1  UNL1        0.0886
     29 C          -7.9274  -16.4187   22.5746 C.3     1  UNL1        0.0748
     30 C          -8.7381  -16.1328   23.8039 C.3     1  UNL1        0.0432
     31 C          -8.0525  -15.7527   25.0828 C.ar    1  UNL1       -0.0234
     32 C          -8.8631  -15.4668   26.3120 C.ar    1  UNL1       -0.0045
     33 C          -8.1776  -15.0868   27.5909 C.ar    1  UNL1       -0.0003
     34 C          -6.6813  -14.9927   27.6405 C.ar    1  UNL1       -0.0003
     35 C          -5.8707  -15.2786   26.4113 C.ar    1  UNL1       -0.0032
     36 C          -6.5563  -15.6587   25.1325 C.ar    1  UNL1       -0.0103
     37 C          -5.7456  -15.9446   23.9031 C.3     1  UNL1        0.0953
     38 N          -6.4312  -16.3246   22.6243 N.3     1  UNL1       -0.2934
     39 H          -6.0696  -17.2402   22.3571 H       1  UNL1        0.1236
@<TRIPOS>BOND
     1    20    21    1
     2    21    22    1
     3    21    23    1
     4    23    24    1
     5    24    25    1
     6    25    18    1
     7    18    17    1
     8    17    14    1
     9    14    15    1
    10    14    16    1
    11    14    13    1
    12    13    12    1
    13    12     1    1
    14     1    28    1
    15    29    28    1
    16    29    30    1
    17    30    31    1
    18    31    32   ar
    19    32    33   ar
    20    33    34   ar
    21    34    35   ar
    22    35    36   ar
    23    36    37    1
    24    37    38    1
    25     2     1    1
    26     2     3    1
    27     3     4    1
    28     4     5    1
    29     5     6    1
    30     6     7   ar
    31     7     8   ar
    32     8     9   ar
    33     9    10   ar
    34    10    11   ar
    35    25    26    1
    36    26    27    1
    37    27    21    1
    38    38    29    1
    39    11     2    1
    40    36    31   ar
    41    11     6   ar
    42    18    19    1
    43    38    39    1
@<TRIPOS>MOLECULE
*****
 39 43 0 0 0
SMALL
GASTEIGER

@<TRIPOS>ATOM
      1 N          -9.3978  -18.8793   23.7619 N.3     1  UNL1       -0.2679
      2 C         -10.8167  -18.4541   23.5251 C.3     1  UNL1        0.0978
      3 C         -11.8886  -18.8425   24.4998 C.3     1  UNL1        0.0224
      4 C         -13.3075  -18.4174   24.2630 C.3     1  UNL1        0.0065
      5 C         -13.6544  -17.6039   23.0516 C.3     1  UNL1        0.0277
      6 C         -12.5825  -17.2155   22.0768 C.ar    1  UNL1       -0.0073
      7 C         -12.9295  -16.4019   20.8653 C.ar    1  UNL1       -0.0015
      8 C         -11.8576  -16.0135   19.8906 C.ar    1  UNL1        0.0203
      9 C         -10.4387  -16.4386   20.1273 C.ar    1  UNL1        0.0985
     10 N         -10.0917  -17.2522   21.3388 N.ar    1  UNL1       -0.2471
     11 C         -11.1636  -17.6406   22.3136 C.ar    1  UNL1        0.0695
     12 C          -8.5670  -18.1775   24.7949 C.3     1  UNL1        0.0725
     13 C          -9.2322  -17.4716   25.9393 C.3     1  UNL1        0.0187
     14 C          -8.6549  -16.1925   26.4690 C.3     1  UNL1        0.0158
     15 C          -8.3505  -16.8696   27.7724 C.3     1  UNL1        0.0014
     16 C          -8.9592  -15.5154   25.1656 C.3     1  UNL1        0.0014
     17 C          -8.0776  -14.9134   26.9987 C.3     1  UNL1        0.0685
     18 N          -6.5900  -14.7309   27.0606 N.3     1  UNL1       -0.2985
     19 H          -6.4131  -13.7289   26.9892 H       1  UNL1        0.1232
     20 C          -3.5773  -16.6279   22.5698 C.3     1  UNL1        0.0000
     21 C          -3.9486  -16.7365   24.0191 C.3     1  UNL1        0.0001
     22 C          -2.9709  -17.8693   23.9151 C.3     1  UNL1        0.0000
     23 C          -3.9803  -17.2386   25.4322 C.3     1  UNL1        0.0014
     24 C          -4.8608  -16.5700   26.4460 C.3     1  UNL1        0.0157
     25 C          -5.7095  -15.3995   26.0467 C.3     1  UNL1        0.0540
     26 C          -5.6778  -14.8974   24.6336 C.3     1  UNL1        0.0157
     27 C          -4.7974  -15.5659   23.6198 C.3     1  UNL1        0.0014
     28 C          -8.8097  -20.0062   22.9656 C.3     1  UNL1        0.0886
     29 C          -7.6610  -19.7481   22.0359 C.3     1  UNL1        0.0748
     30 C          -6.2626  -20.0871   22.4595 C.3     1  UNL1        0.0432
     31 C          -5.1140  -19.8290   21.5299 C.ar    1  UNL1       -0.0234
     32 C          -3.7156  -20.1680   21.9535 C.ar    1  UNL1       -0.0045
     33 C          -2.5670  -19.9100   21.0239 C.ar    1  UNL1       -0.0003
     34 C          -2.8169  -19.3130   19.6707 C.ar    1  UNL1       -0.0003
     35 C          -4.2153  -18.9740   19.2471 C.ar    1  UNL1       -0.0032
     36 C          -5.3639  -19.2320   20.1767 C.ar    1  UNL1       -0.0103
     37 C          -6.7624  -18.8931   19.7531 C.3     1  UNL1        0.0953
     38 N          -7.9109  -19.1511   20.6827 N.3     1  UNL1       -0.2934
     39 H          -8.5479  -19.7816   20.1958 H       1  UNL1        0.1236
@<TRIPOS>BOND
     1    20    21    1
     2    21    22    1
     3    21    23    1
     4    23    24    1
     5    24    25    1
     6    25    18    1
     7    18    17    1
     8    17    14    1
     9    14    15    1
    10    14    16    1
    11    14    13    1
    12    13    12    1
    13    12     1    1
    14     1    28    1
    15    29    28    1
    16    29    30    1
    17    30    31    1
    18    31    32   ar
    19    32    33   ar
    20    33    34   ar
    21    34    35   ar
    22    35    36   ar
    23    36    37    1
    24    37    38    1
    25     2     1    1
    26     2     3    1
    27     3     4    1
    28     4     5    1
    29     5     6    1
    30     6     7   ar
    31     7     8   ar
    32     8     9   ar
    33     9    10   ar
    34    10    11   ar
    35    25    26    1
    36    26    27    1
    37    27    21    1
    38    38    29    1
    39    11     2    1
    40    36    31   ar
    41    11     6   ar
    42    18    19    1
    43    38    39    1
@<TRIPOS>MOLECULE
*****
 39 43 0 0 0
SMALL
GASTEIGER

@<TRIPOS>ATOM
      1 N           0.0087    2.3956   20.5205 N.3     1  UNL1       -0.2679
      2 C          -0.8755    3.0412   19.4951 C.3     1  UNL1        0.0978
      3 C          -0.3151    3.4287   18.1588 C.3     1  UNL1        0.0224
      4 C          -1.1993    4.0743   17.1333 C.3     1  UNL1        0.0065
      5 C          -2.6438    4.3323   17.4442 C.3     1  UNL1        0.0277
      6 C          -3.2042    3.9448   18.7805 C.ar    1  UNL1       -0.0073
      7 C          -4.6488    4.2029   19.0915 C.ar    1  UNL1       -0.0015
      8 C          -5.2091    3.8153   20.4278 C.ar    1  UNL1        0.0203
      9 C          -4.3250    3.1698   21.4532 C.ar    1  UNL1        0.0985
     10 N          -2.8805    2.9117   21.1423 N.ar    1  UNL1       -0.2471
     11 C          -2.3200    3.2992   19.8060 C.ar    1  UNL1        0.0695
     12 C           0.6770    3.2342   21.5693 C.3     1  UNL1        0.0725
     13 C           0.6891    2.7788   22.9985 C.3     1  UNL1        0.0187
     14 C           1.7595    1.8442   23.4788 C.3     1  UNL1        0.0158
     15 C           0.7230    1.0178   24.1806 C.3     1  UNL1        0.0014
     16 C           2.7960    2.6707   22.7770 C.3     1  UNL1        0.0014
     17 C           2.8299    0.9096   23.9591 C.3     1  UNL1        0.0685
     18 N           2.8199   -0.5271   23.5283 N.3     1  UNL1       -0.2985
     19 H           2.5889   -1.0804   24.3534 H       1  UNL1        0.1232
     20 C           7.1992   -3.6908   21.6166 C.3     1  UNL1        0.0000
     21 C           6.5129   -2.3616   21.7264 C.3     1  UNL1        0.0001
     22 C           7.7126   -1.9692   20.9160 C.3     1  UNL1        0.0000
     23 C           6.2433   -0.8961   21.5547 C.3     1  UNL1        0.0014
     24 C           5.0123   -0.2846   22.1554 C.3     1  UNL1        0.0157
     25 C           4.0509   -1.1386   22.9276 C.3     1  UNL1        0.0540
     26 C           4.3205   -2.6041   23.0993 C.3     1  UNL1        0.0157
     27 C           5.5515   -3.2157   22.4987 C.3     1  UNL1        0.0014
     28 C           0.2245    0.9114   20.4972 C.3     1  UNL1        0.0886
     29 C           1.4640    0.3435   19.8717 C.3     1  UNL1        0.0748
     30 C           1.7791   -1.1153   20.0222 C.3     1  UNL1        0.0432
     31 C           3.0186   -1.6832   19.3967 C.ar    1  UNL1       -0.0234
     32 C           3.3338   -3.1420   19.5472 C.ar    1  UNL1       -0.0045
     33 C           4.5732   -3.7099   18.9217 C.ar    1  UNL1       -0.0003
     34 C           5.4975   -2.8190   18.1458 C.ar    1  UNL1       -0.0003
     35 C           5.1823   -1.3603   17.9953 C.ar    1  UNL1       -0.0032
     36 C           3.9429   -0.7924   18.6207 C.ar    1  UNL1       -0.0103
     37 C           3.6277    0.6664   18.4702 C.3     1  UNL1        0.0953
     38 N           2.3882    1.2343   19.0957 N.3     1  UNL1       -0.2934
     39 H           1.8380    1.6430   18.3403 H       1  UNL1        0.1236
@<TRIPOS>BOND
     1    20    21    1
     2    21    22    1
     3    21    23    1
     4    23    24    1
     5    24    25    1
     6    25    18    1
     7    18    17    1
     8    17    14    1
     9    14    15    1
    10    14    16    1
    11    14    13    1
    12    13    12    1
    13    12     1    1
    14     1    28    1
    15    29    28    1
    16    29    30    1
    17    30    31    1
    18    31    32   ar
    19    32    33   ar
    20    33    34   ar
    21    34    35   ar
    22    35    36   ar
    23    36    37    1
    24    37    38    1
    25     2     1    1
    26     2     3    1
    27     3     4    1
    28     4     5    1
    29     5     6    1
    30     6     7   ar
    31     7     8   ar
    32     8     9   ar
    33     9    10   ar
    34    10    11   ar
    35    25    26    1
    36    26    27    1
    37    27    21    1
    38    38    29    1
    39    11     2    1
    40    36    31   ar
    41    11     6   ar
    42    18    19    1
    43    38    39    1
@<TRIPOS>MOLECULE
*****
 39 43 0 0 0
SMALL
GASTEIGER

@<TRIPOS>ATOM
      1 N           6.4640   -3.4569   23.6664 N.3     1  UNL1       -0.2679
      2 C           7.3514   -4.6512   23.4765 C.3     1  UNL1        0.0978
      3 C           8.0992   -4.8327   22.1890 C.3     1  UNL1        0.0224
      4 C           8.9867   -6.0270   21.9990 C.3     1  UNL1        0.0065
      5 C           9.1263   -7.0398   23.0966 C.3     1  UNL1        0.0277
      6 C           8.3785   -6.8583   24.3841 C.ar    1  UNL1       -0.0073
      7 C           8.5181   -7.8711   25.4818 C.ar    1  UNL1       -0.0015
      8 C           7.7703   -7.6895   26.7693 C.ar    1  UNL1        0.0203
      9 C           6.8829   -6.4952   26.9593 C.ar    1  UNL1        0.0985
     10 N           6.7432   -5.4825   25.8617 N.ar    1  UNL1       -0.2471
     11 C           7.4911   -5.6640   24.5741 C.ar    1  UNL1        0.0695
     12 C           6.9585   -2.2704   24.4395 C.3     1  UNL1        0.0725
     13 C           6.0483   -1.5729   25.4065 C.3     1  UNL1        0.0187
     14 C           5.0659   -0.5538   24.9102 C.3     1  UNL1        0.0158
     15 C           6.1756    0.1771   24.2143 C.3     1  UNL1        0.0014
     16 C           3.9562   -1.2847   25.6060 C.3     1  UNL1        0.0014
     17 C           4.0835    0.4652   24.4138 C.3     1  UNL1        0.0685
     18 N           2.8158    0.0218   23.7459 N.3     1  UNL1       -0.2985
     19 H           2.8160   -0.9981   23.7614 H       1  UNL1        0.1232
     20 C           2.1832    2.4124   18.5761 C.3     1  UNL1        0.0000
     21 C           1.9561    1.2566   19.5048 C.3     1  UNL1        0.0001
     22 C           1.2901    0.7313   18.2677 C.3     1  UNL1        0.0000
     23 C           1.4978   -0.0817   20.0038 C.3     1  UNL1        0.0014
     24 C           1.7844   -0.4933   21.4176 C.3     1  UNL1        0.0157
     25 C           2.5292    0.4334   22.3322 C.3     1  UNL1        0.0540
     26 C           2.9875    1.7716   21.8331 C.3     1  UNL1        0.0157
     27 C           2.7010    2.1832   20.4195 C.3     1  UNL1        0.0014
     28 C           5.0820   -3.4491   23.0834 C.3     1  UNL1        0.0886
     29 C           4.8596   -2.9463   21.6877 C.3     1  UNL1        0.0748
     30 C           5.3784   -1.5978   21.2848 C.3     1  UNL1        0.0432
     31 C           5.1560   -1.0949   19.8891 C.ar    1  UNL1       -0.0234
     32 C           5.6748    0.2535   19.4862 C.ar    1  UNL1       -0.0045
     33 C           5.4524    0.7563   18.0906 C.ar    1  UNL1       -0.0003
     34 C           4.7112   -0.0894   17.0979 C.ar    1  UNL1       -0.0003
     35 C           4.1924   -1.4379   17.5009 C.ar    1  UNL1       -0.0032
     36 C           4.4148   -1.9407   18.8964 C.ar    1  UNL1       -0.0103
     37 C           3.8960   -3.2892   19.2994 C.3     1  UNL1        0.0953
     38 N           4.1184   -3.7920   20.6950 N.3     1  UNL1       -0.2934
     39 H           4.6325   -4.6692   20.6136 H       1  UNL1        0.1236
@<TRIPOS>BOND
     1    20    21    1
     2    21    22    1
     3    21    23    1
     4    23    24    1
     5    24    25    1
     6    25    18    1
     7    18    17    1
     8    17    14    1
     9    14    15    1
    10    14    16    1
    11    14    13    1
    12    13    12    1
    13    12     1    1
    14     1    28    1
    15    29    28    1
    16    29    30    1
    17    30    31    1
    18    31    32   ar
    19    32    33   ar
    20    33    34   ar
    21    34    35   ar
    22    35    36   ar
    23    36    37    1
    24    37    38    1
    25     2     1    1
    26     2     3    1
    27     3     4    1
    28     4     5    1
    29     5     6    1
    30     6     7   ar
    31     7     8   ar
    32     8     9   ar
    33     9    10   ar
    34    10    11   ar
    35    25    26    1
    36    26    27    1
    37    27    21    1
    38    38    29    1
    39    11     2    1
    40    36    31   ar
    41    11     6   ar
    42    18    19    1
    43    38    39    1
@<TRIPOS>MOLECULE
*****
 39 43 0 0 0
SMALL
GASTEIGER

@<TRIPOS>ATOM
      1 N           4.6421   -2.4507   22.6399 N.3     1  UNL1       -0.2679
      2 C           3.6854   -1.3159   22.8566 C.3     1  UNL1        0.0978
      3 C           3.0274   -0.6550   21.6818 C.3     1  UNL1        0.0224
      4 C           2.0707    0.4798   21.8985 C.3     1  UNL1        0.0065
      5 C           1.7720    0.9537   23.2899 C.3     1  UNL1        0.0277
      6 C           2.4301    0.2929   24.4647 C.ar    1  UNL1       -0.0073
      7 C           2.1315    0.7668   25.8562 C.ar    1  UNL1       -0.0015
      8 C           2.7896    0.1059   27.0310 C.ar    1  UNL1        0.0203
      9 C           3.7463   -1.0289   26.8143 C.ar    1  UNL1        0.0985
     10 N           4.0449   -1.5028   25.4229 N.ar    1  UNL1       -0.2471
     11 C           3.3868   -0.8420   24.2480 C.ar    1  UNL1        0.0695
     12 C           4.2223   -3.6413   21.8298 C.3     1  UNL1        0.0725
     13 C           5.0202   -4.0489   20.6267 C.3     1  UNL1        0.0187
     14 C           4.9043   -3.2691   19.3506 C.3     1  UNL1        0.0158
     15 C           3.4653   -3.6757   19.2328 C.3     1  UNL1        0.0014
     16 C           6.3433   -2.8625   19.4684 C.3     1  UNL1        0.0014
     17 C           4.7885   -2.4893   18.0745 C.3     1  UNL1        0.0685
     18 N           5.2101   -1.0504   18.0339 N.3     1  UNL1       -0.2985
     19 H           5.9137   -0.9290   18.7623 H       1  UNL1        0.1232
     20 C           2.0853    3.6591   18.9816 C.3     1  UNL1        0.0000
     21 C           2.1593    2.2055   18.6193 C.3     1  UNL1        0.0001
     22 C           0.6753    2.4145   18.5559 C.3     1  UNL1        0.0000
     23 C           1.7179    0.8244   18.2349 C.3     1  UNL1        0.0014
     24 C           2.7348   -0.2609   18.0398 C.3     1  UNL1        0.0157
     25 C           4.1931    0.0349   18.2290 C.3     1  UNL1        0.0540
     26 C           4.6345    1.4160   18.6133 C.3     1  UNL1        0.0157
     27 C           3.6177    2.5013   18.8085 C.3     1  UNL1        0.0014
     28 C           6.0185   -2.3950   23.2334 C.3     1  UNL1        0.0886
     29 C           6.5615   -3.5769   23.9807 C.3     1  UNL1        0.0748
     30 C           7.5051   -4.5247   23.3015 C.3     1  UNL1        0.0432
     31 C           8.0481   -5.7066   24.0488 C.ar    1  UNL1       -0.0234
     32 C           8.9918   -6.6543   23.3697 C.ar    1  UNL1       -0.0045
     33 C           9.5347   -7.8361   24.1170 C.ar    1  UNL1       -0.0003
     34 C           9.1340   -8.0702   25.5434 C.ar    1  UNL1       -0.0003
     35 C           8.1904   -7.1224   26.2225 C.ar    1  UNL1       -0.0032
     36 C           7.6475   -5.9406   25.4753 C.ar    1  UNL1       -0.0103
     37 C           6.7038   -4.9928   26.1544 C.3     1  UNL1        0.0953
     38 N           6.1608   -3.8109   25.4071 N.3     1  UNL1       -0.2934
     39 H           6.4361   -2.9798   25.9304 H       1  UNL1        0.1236
@<TRIPOS>BOND
     1    20    21    1
     2    21    22    1
     3    21    23    1
     4    23    24    1
     5    24    25    1
     6    25    18    1
     7    18    17    1
     8    17    14    1
     9    14    15    1
    10    14    16    1
    11    14    13    1
    12    13    12    1
    13    12     1    1
    14     1    28    1
    15    29    28    1
    16    29    30    1
    17    30    31    1
    18    31    32   ar
    19    32    33   ar
    20    33    34   ar
    21    34    35   ar
    22    35    36   ar
    23    36    37    1
    24    37    38    1
    25     2     1    1
    26     2     3    1
    27     3     4    1
    28     4     5    1
    29     5     6    1
    30     6     7   ar
    31     7     8   ar
    32     8     9   ar
    33     9    10   ar
    34    10    11   ar
    35    25    26    1
    36    26    27    1
    37    27    21    1
    38    38    29    1
    39    11     2    1
    40    36    31   ar
    41    11     6   ar
    42    18    19    1
    43    38    39    1
@<TRIPOS>MOLECULE
*****
 39 43 0 0 0
SMALL
GASTEIGER

@<TRIPOS>ATOM
      1 N           7.1902   -3.8366   21.0238 N.3     1  UNL1       -0.2679
      2 C           7.0232   -3.8955   22.5133 C.3     1  UNL1        0.0978
      3 C           6.3229   -2.7819   23.2341 C.3     1  UNL1        0.0224
      4 C           6.1559   -2.8408   24.7236 C.3     1  UNL1        0.0065
      5 C           6.6891   -4.0133   25.4923 C.3     1  UNL1        0.0277
      6 C           7.3894   -5.1268   24.7715 C.ar    1  UNL1       -0.0073
      7 C           7.9227   -6.2994   25.5402 C.ar    1  UNL1       -0.0015
      8 C           8.6229   -7.4129   24.8194 C.ar    1  UNL1        0.0203
      9 C           8.7900   -7.3540   23.3299 C.ar    1  UNL1        0.0985
     10 N           8.2567   -6.1816   22.5612 N.ar    1  UNL1       -0.2471
     11 C           7.5564   -5.0679   23.2820 C.ar    1  UNL1        0.0695
     12 C           8.5191   -3.4707   20.4320 C.3     1  UNL1        0.0725
     13 C           9.3334   -2.3681   21.0412 C.3     1  UNL1        0.0187
     14 C           8.9571   -0.9363   20.7996 C.3     1  UNL1        0.0158
     15 C           9.0716   -0.6582   22.2691 C.3     1  UNL1        0.0014
     16 C           8.8426   -1.2144   19.3301 C.3     1  UNL1        0.0014
     17 C           8.5808    0.4954   20.5580 C.3     1  UNL1        0.0685
     18 N           7.3948    0.8248   19.7006 N.3     1  UNL1       -0.2985
     19 H           7.6692    1.6070   19.1063 H       1  UNL1        0.1232
     20 C           2.6005    1.5480   22.7558 C.3     1  UNL1        0.0000
     21 C           3.4814    1.9564   21.6125 C.3     1  UNL1        0.0001
     22 C           2.3637    2.9428   21.4455 C.3     1  UNL1        0.0000
     23 C           3.9741    2.7075   20.4112 C.3     1  UNL1        0.0014
     24 C           5.2786    2.3302   19.7739 C.3     1  UNL1        0.0157
     25 C           6.0903    1.2020   20.3379 C.3     1  UNL1        0.0540
     26 C           5.5976    0.4510   21.5392 C.3     1  UNL1        0.0157
     27 C           4.2931    0.8281   22.1765 C.3     1  UNL1        0.0014
     28 C           6.0284   -4.1436   20.1261 C.3     1  UNL1        0.0886
     29 C           5.2021   -3.0267   19.5604 C.3     1  UNL1        0.0748
     30 C           3.9095   -2.6429   20.2176 C.3     1  UNL1        0.0432
     31 C           3.0831   -1.5261   19.6519 C.ar    1  UNL1       -0.0234
     32 C           1.7906   -1.1423   20.3091 C.ar    1  UNL1       -0.0045
     33 C           0.9643   -0.0255   19.7434 C.ar    1  UNL1       -0.0003
     34 C           1.4306    0.7075   18.5206 C.ar    1  UNL1       -0.0003
     35 C           2.7232    0.3237   17.8634 C.ar    1  UNL1       -0.0032
     36 C           3.5494   -0.7931   18.4291 C.ar    1  UNL1       -0.0103
     37 C           4.8421   -1.1770   17.7719 C.3     1  UNL1        0.0953
     38 N           5.6684   -2.2937   18.3376 N.3     1  UNL1       -0.2934
     39 H           6.5823   -1.8998   18.5610 H       1  UNL1        0.1236
@<TRIPOS>BOND
     1    20    21    1
     2    21    22    1
     3    21    23    1
     4    23    24    1
     5    24    25    1
     6    25    18    1
     7    18    17    1
     8    17    14    1
     9    14    15    1
    10    14    16    1
    11    14    13    1
    12    13    12    1
    13    12     1    1
    14     1    28    1
    15    29    28    1
    16    29    30    1
    17    30    31    1
    18    31    32   ar
    19    32    33   ar
    20    33    34   ar
    21    34    35   ar
    22    35    36   ar
    23    36    37    1
    24    37    38    1
    25     2     1    1
    26     2     3    1
    27     3     4    1
    28     4     5    1
    29     5     6    1
    30     6     7   ar
    31     7     8   ar
    32     8     9   ar
    33     9    10   ar
    34    10    11   ar
    35    25    26    1
    36    26    27    1
    37    27    21    1
    38    38    29    1
    39    11     2    1
    40    36    31   ar
    41    11     6   ar
    42    18    19    1
    43    38    39    1
@<TRIPOS>MOLECULE
*****
 39 43 0 0 0
SMALL
GASTEIGER

@<TRIPOS>ATOM
      1 N           0.4852    2.7090   21.8989 N.3     1  UNL1       -0.2679
      2 C          -0.6037    2.9816   22.8939 C.3     1  UNL1        0.0978
      3 C          -1.8804    3.6313   22.4494 C.3     1  UNL1        0.0224
      4 C          -2.9693    3.9039   23.4444 C.3     1  UNL1        0.0065
      5 C          -2.7815    3.5267   24.8840 C.3     1  UNL1        0.0277
      6 C          -1.5047    2.8769   25.3285 C.ar    1  UNL1       -0.0073
      7 C          -1.3168    2.4997   26.7681 C.ar    1  UNL1       -0.0015
      8 C          -0.0401    1.8499   27.2127 C.ar    1  UNL1        0.0203
      9 C           1.0488    1.5773   26.2177 C.ar    1  UNL1        0.0985
     10 N           0.8610    1.9545   24.7781 N.ar    1  UNL1       -0.2471
     11 C          -0.4158    2.6044   24.3335 C.ar    1  UNL1        0.0695
     12 C           1.5831    3.7106   21.6954 C.3     1  UNL1        0.0725
     13 C           1.7978    4.3237   20.3433 C.3     1  UNL1        0.0187
     14 C           2.8440    3.7660   19.4245 C.3     1  UNL1        0.0158
     15 C           3.9047    4.0943   20.4329 C.3     1  UNL1        0.0014
     16 C           1.7832    3.4377   18.4160 C.3     1  UNL1        0.0014
     17 C           3.8902    3.2083   18.5056 C.3     1  UNL1        0.0685
     18 N           3.8068    1.7806   18.0528 N.3     1  UNL1       -0.2985
     19 H           2.9156    1.4164   18.3898 H       1  UNL1        0.1232
     20 C           7.8098   -1.5119   20.4977 C.3     1  UNL1        0.0000
     21 C           6.9705   -1.1649   19.3039 C.3     1  UNL1        0.0001
     22 C           7.7469   -2.3222   18.7489 C.3     1  UNL1        0.0000
     23 C           6.4009   -1.2198   17.9173 C.3     1  UNL1        0.0014
     24 C           5.3463   -0.2380   17.5003 C.3     1  UNL1        0.0157
     25 C           4.8614    0.7988   18.4698 C.3     1  UNL1        0.0540
     26 C           5.4310    0.8537   19.8564 C.3     1  UNL1        0.0157
     27 C           6.4855   -0.1281   20.2734 C.3     1  UNL1        0.0014
     28 C           0.4762    1.4349   21.1075 C.3     1  UNL1        0.0886
     29 C           1.5057    0.3776   21.3764 C.3     1  UNL1        0.0748
     30 C           1.8781   -0.5978   20.2994 C.3     1  UNL1        0.0432
     31 C           2.9076   -1.6551   20.5684 C.ar    1  UNL1       -0.0234
     32 C           3.2800   -2.6305   19.4914 C.ar    1  UNL1       -0.0045
     33 C           4.3095   -3.6878   19.7604 C.ar    1  UNL1       -0.0003
     34 C           4.9665   -3.7696   21.1063 C.ar    1  UNL1       -0.0003
     35 C           4.5941   -2.7943   22.1833 C.ar    1  UNL1       -0.0032
     36 C           3.5647   -1.7370   21.9143 C.ar    1  UNL1       -0.0103
     37 C           3.1922   -0.7616   22.9913 C.3     1  UNL1        0.0953
     38 N           2.1628    0.2957   22.7223 N.3     1  UNL1       -0.2934
     39 H           2.6154    1.1953   22.8843 H       1  UNL1        0.1236
@<TRIPOS>BOND
     1    20    21    1
     2    21    22    1
     3    21    23    1
     4    23    24    1
     5    24    25    1
     6    25    18    1
     7    18    17    1
     8    17    14    1
     9    14    15    1
    10    14    16    1
    11    14    13    1
    12    13    12    1
    13    12     1    1
    14     1    28    1
    15    29    28    1
    16    29    30    1
    17    30    31    1
    18    31    32   ar
    19    32    33   ar
    20    33    34   ar
    21    34    35   ar
    22    35    36   ar
    23    36    37    1
    24    37    38    1
    25     2     1    1
    26     2     3    1
    27     3     4    1
    28     4     5    1
    29     5     6    1
    30     6     7   ar
    31     7     8   ar
    32     8     9   ar
    33     9    10   ar
    34    10    11   ar
    35    25    26    1
    36    26    27    1
    37    27    21    1
    38    38    29    1
    39    11     2    1
    40    36    31   ar
    41    11     6   ar
    42    18    19    1
    43    38    39    1
