@<TRIPOS>MOLECULE
*****
 29 31 0 0 0
SMALL
GASTEIGER

@<TRIPOS>ATOM
      1 O          -8.1802  -19.8391   22.4231 O.2     1  UNL1       -0.2732
      2 C          -7.7005  -18.7927   21.4614 C.2     1  UNL1        0.2430
      3 N          -7.9504  -17.3414   21.7461 N.am    1  UNL1       -0.2948
      4 H          -7.6355  -16.6546   21.1149 H       1  UNL1        0.1501
      5 C          -6.9707  -19.1976   20.2150 C.3     1  UNL1        0.1759
      6 N          -5.6012  -18.6525   19.9371 N.am    1  UNL1       -0.2931
      7 C          -4.4877  -18.8880   20.9142 C.2     1  UNL1        0.2462
      8 O          -4.7437  -19.6688   22.1691 O.2     1  UNL1       -0.2701
      9 H          -5.4331  -18.1400   19.1135 H       1  UNL1        0.1502
     10 C          -3.1181  -18.3429   20.6363 C.ar    1  UNL1        0.0535
     11 C          -2.4020  -18.7218   19.3739 C.ar    1  UNL1        0.0068
     12 C          -1.0325  -18.1767   19.0961 C.ar    1  UNL1        0.0298
     13 C          -0.3791  -17.2526   20.0806 C.ar    1  UNL1        0.1401
     14 F           0.9904  -16.7074   19.8027 F       1  UNL1       -0.2042
     15 C          -1.0953  -16.8737   21.3429 C.ar    1  UNL1        0.0298
     16 C          -2.4648  -17.4188   21.6208 C.ar    1  UNL1        0.0068
     17 C          -8.6802  -16.9364   22.9926 C.3     1  UNL1        0.1534
     18 C          -7.9215  -16.3657   24.1539 C.ar    1  UNL1        0.0028
     19 C          -8.6067  -16.1697   25.4738 C.ar    1  UNL1       -0.0023
     20 C          -7.8480  -15.5990   26.6352 C.ar    1  UNL1       -0.0003
     21 C          -6.4043  -15.2244   26.4767 C.ar    1  UNL1       -0.0000
     22 C          -5.7191  -15.4204   25.1567 C.ar    1  UNL1       -0.0003
     23 C          -6.4777  -15.9911   23.9954 C.ar    1  UNL1       -0.0023
     24 C         -10.1686  -17.1021   23.0776 C.ar    1  UNL1        0.1611
     25 N         -10.7528  -18.2471   23.8508 N.ar    1  UNL1       -0.2271
     26 C         -12.2411  -18.4128   23.9358 C.ar    1  UNL1        0.1019
     27 C         -13.1453  -17.4336   23.2476 C.ar    1  UNL1        0.0413
     28 C         -12.5611  -16.2887   22.4744 C.ar    1  UNL1        0.1019
     29 N         -11.0727  -16.1230   22.3894 N.ar    1  UNL1       -0.2271
@<TRIPOS>BOND
     1     1     2    2
     2     2     5    1
     3     5     6    1
     4     6     7   am
     5     7     8    2
     6     7    10    1
     7    10    11   ar
     8    11    12   ar
     9    12    13   ar
    10    13    14    1
    11    13    15   ar
    12    15    16   ar
    13     2     3   am
    14     3    17    1
    15    17    18    1
    16    18    19   ar
    17    19    20   ar
    18    20    21   ar
    19    21    22   ar
    20    22    23   ar
    21    17    24    1
    22    24    25   ar
    23    25    26   ar
    24    26    27   ar
    25    27    28   ar
    26    28    29   ar
    27    16    10   ar
    28    23    18   ar
    29    29    24   ar
    30     6     9    1
    31     3     4    1
@<TRIPOS>MOLECULE
*****
 29 31 0 0 0
SMALL
GASTEIGER

@<TRIPOS>ATOM
      1 O          -8.4393  -19.8594   22.3725 O.2     1  UNL1       -0.2732
      2 C          -8.0624  -18.7776   21.4043 C.2     1  UNL1        0.2430
      3 N          -8.3390  -17.3418   21.7389 N.am    1  UNL1       -0.2948
      4 H          -8.0916  -16.6318   21.1034 H       1  UNL1        0.1501
      5 C          -7.4088  -19.1315   20.1014 C.3     1  UNL1        0.1759
      6 N          -5.9979  -18.7010   19.8287 N.am    1  UNL1       -0.2931
      7 C          -4.8915  -19.1336   20.7445 C.2     1  UNL1        0.2462
      8 O          -5.1959  -19.9967   21.9329 O.2     1  UNL1       -0.2701
      9 H          -5.7982  -18.1345   19.0487 H       1  UNL1        0.1502
     10 C          -3.4807  -18.7031   20.4718 C.ar    1  UNL1        0.0535
     11 C          -3.1033  -18.1855   19.1155 C.ar    1  UNL1        0.0068
     12 C          -1.6926  -17.7550   18.8428 C.ar    1  UNL1        0.0298
     13 C          -0.6591  -17.8422   19.9266 C.ar    1  UNL1        0.1401
     14 F           0.7517  -17.4116   19.6539 F       1  UNL1       -0.2042
     15 C          -1.0365  -18.3597   21.2829 C.ar    1  UNL1        0.0298
     16 C          -2.4473  -18.7902   21.5555 C.ar    1  UNL1        0.0068
     17 C          -8.9926  -16.9879   23.0418 C.3     1  UNL1        0.1534
     18 C         -10.4660  -17.2020   23.2244 C.ar    1  UNL1        0.0028
     19 C         -10.9593  -18.3224   24.0911 C.ar    1  UNL1       -0.0023
     20 C         -12.4327  -18.5365   24.2737 C.ar    1  UNL1       -0.0003
     21 C         -13.4128  -17.6303   23.5894 C.ar    1  UNL1       -0.0000
     22 C         -12.9194  -16.5099   22.7226 C.ar    1  UNL1       -0.0003
     23 C         -11.4460  -16.2957   22.5401 C.ar    1  UNL1       -0.0023
     24 C          -8.1729  -16.4198   24.1622 C.ar    1  UNL1        0.1611
     25 N          -6.7268  -16.0885   23.9402 N.ar    1  UNL1       -0.2271
     26 C          -5.9070  -15.5204   25.0606 C.ar    1  UNL1        0.1019
     27 C          -6.5333  -15.2836   26.4029 C.ar    1  UNL1        0.0413
     28 C          -7.9793  -15.6148   26.6248 C.ar    1  UNL1        0.1019
     29 N          -8.7991  -16.1829   25.5045 N.ar    1  UNL1       -0.2271
@<TRIPOS>BOND
     1     1     2    2
     2     2     5    1
     3     5     6    1
     4     6     7   am
     5     7     8    2
     6     7    10    1
     7    10    11   ar
     8    11    12   ar
     9    12    13   ar
    10    13    14    1
    11    13    15   ar
    12    15    16   ar
    13     2     3   am
    14     3    17    1
    15    17    18    1
    16    18    19   ar
    17    19    20   ar
    18    20    21   ar
    19    21    22   ar
    20    22    23   ar
    21    17    24    1
    22    24    25   ar
    23    25    26   ar
    24    26    27   ar
    25    27    28   ar
    26    28    29   ar
    27    16    10   ar
    28    23    18   ar
    29    29    24   ar
    30     6     9    1
    31     3     4    1
@<TRIPOS>MOLECULE
*****
 29 31 0 0 0
SMALL
GASTEIGER

@<TRIPOS>ATOM
      1 O          -8.2705  -17.9033   20.9123 O.2     1  UNL1       -0.2732
      2 C          -7.9934  -19.1520   21.6959 C.2     1  UNL1        0.2430
      3 N          -8.5443  -19.3049   23.0826 N.am    1  UNL1       -0.2948
      4 H          -8.3625  -20.1245   23.5969 H       1  UNL1        0.1501
      5 C          -7.1654  -20.2477   21.0928 C.3     1  UNL1        0.1759
      6 N          -5.7795  -19.9554   20.5990 N.am    1  UNL1       -0.2931
      7 C          -4.9324  -18.9362   21.3015 C.2     1  UNL1        0.2462
      8 O          -5.4712  -18.2092   22.4979 O.2     1  UNL1       -0.2701
      9 H          -5.4259  -20.4325   19.8138 H       1  UNL1        0.1502
     10 C          -3.5465  -18.6439   20.8077 C.ar    1  UNL1        0.0535
     11 C          -2.4056  -18.5649   21.7783 C.ar    1  UNL1        0.0068
     12 C          -1.0197  -18.2726   21.2844 C.ar    1  UNL1        0.0298
     13 C          -0.7747  -18.0593   19.8200 C.ar    1  UNL1        0.1401
     14 F           0.6112  -17.7670   19.3262 F       1  UNL1       -0.2042
     15 C          -1.9156  -18.1383   18.8495 C.ar    1  UNL1        0.0298
     16 C          -3.3015  -18.4306   19.3433 C.ar    1  UNL1        0.0068
     17 C          -9.3723  -18.2091   23.6858 C.3     1  UNL1        0.1534
     18 C          -8.7611  -17.2689   24.6820 C.ar    1  UNL1        0.0028
     19 C          -7.8957  -16.1374   24.2123 C.ar    1  UNL1       -0.0023
     20 C          -7.2844  -15.1972   25.2086 C.ar    1  UNL1       -0.0003
     21 C          -7.5387  -15.3885   26.6744 C.ar    1  UNL1       -0.0000
     22 C          -8.4042  -16.5201   27.1441 C.ar    1  UNL1       -0.0003
     23 C          -9.0154  -17.4603   26.1479 C.ar    1  UNL1       -0.0023
     24 C         -10.8115  -18.0536   23.2927 C.ar    1  UNL1        0.1611
     25 N         -11.1654  -17.5719   21.9169 N.ar    1  UNL1       -0.2271
     26 C         -12.6046  -17.4164   21.5238 C.ar    1  UNL1        0.1019
     27 C         -13.6899  -17.7425   22.5066 C.ar    1  UNL1        0.0413
     28 C         -13.3360  -18.2242   23.8823 C.ar    1  UNL1        0.1019
     29 N         -11.8968  -18.3797   24.2754 N.ar    1  UNL1       -0.2271
@<TRIPOS>BOND
     1     1     2    2
     2     2     5    1
     3     5     6    1
     4     6     7   am
     5     7     8    2
     6     7    10    1
     7    10    11   ar
     8    11    12   ar
     9    12    13   ar
    10    13    14    1
    11    13    15   ar
    12    15    16   ar
    13     2     3   am
    14     3    17    1
    15    17    18    1
    16    18    19   ar
    17    19    20   ar
    18    20    21   ar
    19    21    22   ar
    20    22    23   ar
    21    17    24    1
    22    24    25   ar
    23    25    26   ar
    24    26    27   ar
    25    27    28   ar
    26    28    29   ar
    27    16    10   ar
    28    23    18   ar
    29    29    24   ar
    30     6     9    1
    31     3     4    1
@<TRIPOS>MOLECULE
*****
 29 31 0 0 0
SMALL
GASTEIGER

@<TRIPOS>ATOM
      1 O          -5.4302  -18.3630   19.6140 O.2     1  UNL1       -0.2732
      2 C          -6.4142  -18.9468   20.5840 C.2     1  UNL1        0.2430
      3 N          -6.2205  -18.7506   22.0584 N.am    1  UNL1       -0.2948
      4 H          -6.8663  -19.1338   22.6951 H       1  UNL1        0.1501
      5 C          -7.5919  -19.7269   20.0796 C.3     1  UNL1        0.1759
      6 N          -8.9083  -19.6434   20.7939 N.am    1  UNL1       -0.2931
      7 C          -9.3643  -18.3384   21.3762 C.2     1  UNL1        0.2462
      8 O          -8.5039  -17.1169   21.2442 O.2     1  UNL1       -0.2701
      9 H          -9.4731  -20.4452   20.8805 H       1  UNL1        0.1502
     10 C         -10.6807  -18.2550   22.0904 C.ar    1  UNL1        0.0535
     11 C         -11.9112  -17.8261   21.3475 C.ar    1  UNL1        0.0068
     12 C         -13.2276  -17.7427   22.0618 C.ar    1  UNL1        0.0298
     13 C         -13.3135  -18.0881   23.5189 C.ar    1  UNL1        0.1401
     14 F         -14.6299  -18.0047   24.2332 F       1  UNL1       -0.2042
     15 C         -12.0830  -18.5171   24.2618 C.ar    1  UNL1        0.0298
     16 C         -10.7666  -18.6005   23.5476 C.ar    1  UNL1        0.0068
     17 C          -5.0427  -17.9705   22.5629 C.3     1  UNL1        0.1534
     18 C          -5.2075  -17.0250   23.7157 C.ar    1  UNL1        0.0028
     19 C          -6.2905  -15.9877   23.6859 C.ar    1  UNL1       -0.0023
     20 C          -6.4553  -15.0421   24.8387 C.ar    1  UNL1       -0.0003
     21 C          -5.5371  -15.1340   26.0212 C.ar    1  UNL1       -0.0000
     22 C          -4.4540  -16.1714   26.0510 C.ar    1  UNL1       -0.0003
     23 C          -4.2892  -17.1169   24.8982 C.ar    1  UNL1       -0.0023
     24 C          -3.7002  -18.1360   21.9146 C.ar    1  UNL1        0.1611
     25 N          -2.9414  -16.9310   21.4431 N.ar    1  UNL1       -0.2271
     26 C          -1.5989  -17.0964   20.7948 C.ar    1  UNL1        0.1019
     27 C          -1.0152  -18.4669   20.6180 C.ar    1  UNL1        0.0413
     28 C          -1.7740  -19.6718   21.0894 C.ar    1  UNL1        0.1019
     29 N          -3.1165  -19.5064   21.7378 N.ar    1  UNL1       -0.2271
@<TRIPOS>BOND
     1     1     2    2
     2     2     5    1
     3     5     6    1
     4     6     7   am
     5     7     8    2
     6     7    10    1
     7    10    11   ar
     8    11    12   ar
     9    12    13   ar
    10    13    14    1
    11    13    15   ar
    12    15    16   ar
    13     2     3   am
    14     3    17    1
    15    17    18    1
    16    18    19   ar
    17    19    20   ar
    18    20    21   ar
    19    21    22   ar
    20    22    23   ar
    21    17    24    1
    22    24    25   ar
    23    25    26   ar
    24    26    27   ar
    25    27    28   ar
    26    28    29   ar
    27    16    10   ar
    28    23    18   ar
    29    29    24   ar
    30     6     9    1
    31     3     4    1
@<TRIPOS>MOLECULE
*****
 29 31 0 0 0
SMALL
GASTEIGER

@<TRIPOS>ATOM
      1 O          -5.3443  -18.2882   19.4842 O.2     1  UNL1       -0.2732
      2 C          -6.1532  -19.0771   20.4708 C.2     1  UNL1        0.2430
      3 N          -5.7916  -19.0536   21.9263 N.am    1  UNL1       -0.2948
      4 H          -6.3225  -19.5714   22.5739 H       1  UNL1        0.1501
      5 C          -7.3237  -19.8894   20.0019 C.3     1  UNL1        0.1759
      6 N          -8.6512  -19.7576   20.6879 N.am    1  UNL1       -0.2931
      7 C          -9.0535  -18.4475   21.2977 C.2     1  UNL1        0.2462
      8 O          -8.1284  -17.2692   21.2215 O.2     1  UNL1       -0.2701
      9 H          -9.2584  -20.5309   20.7380 H       1  UNL1        0.1502
     10 C         -10.3809  -18.3157   21.9838 C.ar    1  UNL1        0.0535
     11 C         -11.5817  -17.8552   21.2118 C.ar    1  UNL1        0.0068
     12 C         -12.9090  -17.7234   21.8979 C.ar    1  UNL1        0.0298
     13 C         -13.0356  -18.0521   23.3560 C.ar    1  UNL1        0.1401
     14 F         -14.3630  -17.9203   24.0421 F       1  UNL1       -0.2042
     15 C         -11.8348  -18.5127   24.1279 C.ar    1  UNL1        0.0298
     16 C         -10.5074  -18.6444   23.4419 C.ar    1  UNL1        0.0068
     17 C          -4.6210  -18.2413   22.3953 C.3     1  UNL1        0.1534
     18 C          -3.3069  -18.3359   21.6782 C.ar    1  UNL1        0.0028
     19 C          -2.5511  -17.0880   21.3298 C.ar    1  UNL1       -0.0023
     20 C          -1.2370  -17.1826   20.6127 C.ar    1  UNL1       -0.0003
     21 C          -0.6788  -18.5251   20.2440 C.ar    1  UNL1       -0.0000
     22 C          -1.4346  -19.7731   20.5924 C.ar    1  UNL1       -0.0003
     23 C          -2.7487  -19.6785   21.3095 C.ar    1  UNL1       -0.0023
     24 C          -4.7645  -17.3344   23.5815 C.ar    1  UNL1        0.1611
     25 N          -4.0287  -17.6398   24.8525 N.ar    1  UNL1       -0.2271
     26 C          -4.1723  -16.7329   26.0386 C.ar    1  UNL1        0.1019
     27 C          -5.0516  -15.5205   25.9537 C.ar    1  UNL1        0.0413
     28 C          -5.7873  -15.2152   24.6827 C.ar    1  UNL1        0.1019
     29 N          -5.6437  -16.1221   23.4966 N.ar    1  UNL1       -0.2271
@<TRIPOS>BOND
     1     1     2    2
     2     2     5    1
     3     5     6    1
     4     6     7   am
     5     7     8    2
     6     7    10    1
     7    10    11   ar
     8    11    12   ar
     9    12    13   ar
    10    13    14    1
    11    13    15   ar
    12    15    16   ar
    13     2     3   am
    14     3    17    1
    15    17    18    1
    16    18    19   ar
    17    19    20   ar
    18    20    21   ar
    19    21    22   ar
    20    22    23   ar
    21    17    24    1
    22    24    25   ar
    23    25    26   ar
    24    26    27   ar
    25    27    28   ar
    26    28    29   ar
    27    16    10   ar
    28    23    18   ar
    29    29    24   ar
    30     6     9    1
    31     3     4    1
@<TRIPOS>MOLECULE
*****
 29 31 0 0 0
SMALL
GASTEIGER

@<TRIPOS>ATOM
      1 O           6.0666   -8.8817   26.3586 O.2     1  UNL1       -0.2732
      2 C           6.9498   -9.4969   27.4033 C.2     1  UNL1        0.2430
      3 N           8.0188   -8.6752   28.0604 N.am    1  UNL1       -0.2948
      4 H           8.5985   -9.0790   28.7461 H       1  UNL1        0.1501
      5 C           6.7640  -10.9340   27.7909 C.3     1  UNL1        0.1759
      6 N           5.4053  -11.5641   27.7062 N.am    1  UNL1       -0.2931
      7 C           4.9623  -12.5360   28.7593 C.2     1  UNL1        0.2462
      8 O           5.8779  -12.8779   29.8972 O.2     1  UNL1       -0.2701
      9 H           4.8044  -11.3396   26.9594 H       1  UNL1        0.1502
     10 C           3.6036  -13.1660   28.6746 C.ar    1  UNL1        0.0535
     11 C           3.4337  -14.4942   27.9987 C.ar    1  UNL1        0.0068
     12 C           2.0751  -15.1242   27.9140 C.ar    1  UNL1        0.0298
     13 C           0.8864  -14.4259   28.5052 C.ar    1  UNL1        0.1401
     14 F          -0.4723  -15.0560   28.4204 F       1  UNL1       -0.2042
     15 C           1.0563  -13.0977   29.1810 C.ar    1  UNL1        0.0298
     16 C           2.4150  -12.4677   29.2657 C.ar    1  UNL1        0.0068
     17 C           8.2047   -7.2380   27.6728 C.3     1  UNL1        0.1534
     18 C           8.3656   -6.8654   26.2288 C.ar    1  UNL1        0.0028
     19 C           9.2096   -7.7142   25.3248 C.ar    1  UNL1       -0.0023
     20 C           9.3705   -7.3417   23.8807 C.ar    1  UNL1       -0.0003
     21 C           8.6873   -6.1203   23.3406 C.ar    1  UNL1       -0.0000
     22 C           7.8433   -5.2715   24.2447 C.ar    1  UNL1       -0.0003
     23 C           7.6824   -5.6441   25.6887 C.ar    1  UNL1       -0.0023
     24 C           8.2297   -6.1735   28.7293 C.ar    1  UNL1        0.1611
     25 N           9.5107   -5.8532   29.4412 N.ar    1  UNL1       -0.2271
     26 C           9.5356   -4.7887   30.4977 C.ar    1  UNL1        0.1019
     27 C           8.2797   -4.0445   30.8423 C.ar    1  UNL1        0.0413
     28 C           6.9988   -4.3648   30.1305 C.ar    1  UNL1        0.1019
     29 N           6.9738   -5.4293   29.0740 N.ar    1  UNL1       -0.2271
@<TRIPOS>BOND
     1     1     2    2
     2     2     5    1
     3     5     6    1
     4     6     7   am
     5     7     8    2
     6     7    10    1
     7    10    11   ar
     8    11    12   ar
     9    12    13   ar
    10    13    14    1
    11    13    15   ar
    12    15    16   ar
    13     2     3   am
    14     3    17    1
    15    17    18    1
    16    18    19   ar
    17    19    20   ar
    18    20    21   ar
    19    21    22   ar
    20    22    23   ar
    21    17    24    1
    22    24    25   ar
    23    25    26   ar
    24    26    27   ar
    25    27    28   ar
    26    28    29   ar
    27    16    10   ar
    28    23    18   ar
    29    29    24   ar
    30     6     9    1
    31     3     4    1
