@<TRIPOS>MOLECULE
*****
 39 43 0 0 0
SMALL
GASTEIGER

@<TRIPOS>ATOM
      1 C           2.6197   -0.4282   28.7840 C.3     1  UNL1        0.0996
      2 C           3.4183   -0.6130   30.0403 C.3     1  UNL1        0.1158
      3 N           2.8078    0.2458   31.1080 N.3     1  UNL1       -0.1533
      4 C           1.6320    0.9612   30.5116 C.3     1  UNL1        0.1066
      5 C           1.5158    0.5446   29.0753 C.3     1  UNL1        0.1134
      6 C           3.3832   -0.2969   26.3042 C.2     1  UNL1        0.2636
      7 O           3.6270    1.1752   26.4571 O.2     1  UNL1       -0.2685
      8 N           2.8796   -1.0986   27.4676 N.am    1  UNL1       -0.2993
      9 H           2.7196   -2.0648   27.3672 H       1  UNL1        0.1498
     10 C           3.7896   -2.7758   18.8668 C.3     1  UNL1        0.0267
     11 C           4.0288   -2.6778   20.3444 C.2     1  UNL1       -0.0394
     12 C           4.9574   -3.6433   21.0194 C.2     1  UNL1       -0.0066
     13 C           5.1966   -3.5453   22.4970 C.2     1  UNL1        0.0182
     14 C           4.5073   -2.4820   23.2995 C.2     1  UNL1        0.0778
     15 N           4.5470   -2.1426   24.7601 N.2     1  UNL1       -0.2411
     16 C           3.6431   -0.9674   24.9877 C.2     1  UNL1        0.1341
     17 C           3.0446   -0.5804   23.6678 C.2     1  UNL1        0.0213
     18 C           3.5788   -1.5165   22.6244 C.2     1  UNL1        0.0012
     19 C           3.3395   -1.6145   21.1469 C.3     1  UNL1        0.0499
     20 C           0.4779    1.0179   28.1013 C.2     1  UNL1        0.2251
     21 O          -0.8244    0.2839   27.9774 O.2     1  UNL1       -0.2750
     22 N           0.7422    2.2251   27.2510 N.am    1  UNL1       -0.3045
     23 H           1.5969    2.7069   27.3323 H       1  UNL1        0.1494
     24 C          -0.2957    2.6983   26.2771 C.3     1  UNL1        0.0873
     25 C          -1.5996    3.2456   26.7774 C.3     1  UNL1        0.0224
     26 C          -2.6376    3.7188   25.8033 C.3     1  UNL1        0.0188
     27 C          -2.3716    3.6446   24.3290 C.3     1  UNL1        0.0687
     28 N          -1.0677    3.0973   23.8286 N.3     1  UNL1       -0.2961
     29 C          -0.0298    2.6241   24.8026 C.3     1  UNL1        0.0883
     30 H          -0.6343    3.8330   23.2706 H       1  UNL1        0.1233
     31 S           3.2887    0.3676   32.5236 S.O2    1  UNL1        0.0633
     32 O           3.5695   -1.1055   32.5550 O.2     1  UNL1       -0.1528
     33 O           3.0078    1.8408   32.4922 O.2     1  UNL1       -0.1528
     34 C           3.7696    0.4895   33.9392 C.ar    1  UNL1        0.1222
     35 C           4.6196   -0.5914   34.5381 C.ar    1  UNL1        0.0199
     36 C           5.1005   -0.4696   35.9537 C.ar    1  UNL1        0.0014
     37 C           4.7313    0.7332   36.7704 C.ar    1  UNL1        0.0001
     38 C           3.8812    1.8142   36.1714 C.ar    1  UNL1        0.0014
     39 C           3.4003    1.6923   34.7558 C.ar    1  UNL1        0.0199
@<TRIPOS>BOND
     1    10    11    1
     2    11    12    2
     3    12    13    1
     4    13    14    2
     5    14    15    1
     6    15    16    2
     7    16     6    1
     8     6     7    2
     9     6     8   am
    10     1     8    1
    11     1     2    1
    12     2     3    1
    13     3    31    1
    14    31    32    2
    15    31    33    2
    16    31    34    1
    17    34    35   ar
    18    35    36   ar
    19    36    37   ar
    20    37    38   ar
    21    38    39   ar
    22     3     4    1
    23     4     5    1
    24     5    20    1
    25    20    21    2
    26    20    22   am
    27    24    22    1
    28    24    25    1
    29    25    26    1
    30    26    27    1
    31    27    28    1
    32    28    29    1
    33    16    17    1
    34    17    18    2
    35    18    19    1
    36    19    11    1
    37    18    14    1
    38     5     1    1
    39    29    24    1
    40    39    34   ar
    41     8     9    1
    42    22    23    1
    43    28    30    1
@<TRIPOS>MOLECULE
*****
 39 43 0 0 0
SMALL
GASTEIGER

@<TRIPOS>ATOM
      1 C           3.1121   -0.7298   28.3113 C.3     1  UNL1        0.0996
      2 C           4.0953   -1.0037   29.4106 C.3     1  UNL1        0.1158
      3 N           3.6581   -0.2386   30.6246 N.3     1  UNL1       -0.1533
      4 C           2.4048    0.5081   30.2755 C.3     1  UNL1        0.1066
      5 C           2.0675    0.2044   28.8458 C.3     1  UNL1        0.1134
      6 C           3.5118   -0.4014   25.7653 C.2     1  UNL1        0.2636
      7 O           3.8067    1.0507   25.9989 O.2     1  UNL1       -0.2685
      8 N           3.1645   -1.2916   26.9216 N.am    1  UNL1       -0.2993
      9 H           2.9710   -2.2446   26.7682 H       1  UNL1        0.1498
     10 C           4.7357   -4.3473   19.0903 C.3     1  UNL1        0.0267
     11 C           4.2130   -3.3308   20.0617 C.2     1  UNL1       -0.0394
     12 C           3.2584   -2.2711   19.5973 C.2     1  UNL1       -0.0066
     13 C           2.7357   -1.2547   20.5687 C.2     1  UNL1        0.0182
     14 C           3.1676   -1.2979   22.0045 C.2     1  UNL1        0.0778
     15 N           2.8228   -0.4361   23.1828 N.2     1  UNL1       -0.2411
     16 C           3.5643   -0.9633   24.3755 C.2     1  UNL1        0.1341
     17 C           4.3674   -2.1508   23.9343 C.2     1  UNL1        0.0213
     18 C           4.1222   -2.3577   22.4689 C.2     1  UNL1        0.0012
     19 C           4.6449   -3.3741   21.4975 C.3     1  UNL1        0.0499
     20 C           0.8917    0.7410   28.0844 C.2     1  UNL1        0.2251
     21 O          -0.4358    0.0477   28.1683 O.2     1  UNL1       -0.2750
     22 N           1.0435    1.9707   27.2389 N.am    1  UNL1       -0.3045
     23 H           1.9148    2.4258   27.1838 H       1  UNL1        0.1494
     24 C          -0.1322    2.5072   26.4775 C.3     1  UNL1        0.0873
     25 C          -1.2251    3.2364   27.2012 C.3     1  UNL1        0.0224
     26 C          -2.4008    3.7729   26.4397 C.3     1  UNL1        0.0188
     27 C          -2.4836    3.5800   24.9545 C.3     1  UNL1        0.0687
     28 N          -1.3908    2.8508   24.2306 N.3     1  UNL1       -0.2961
     29 C          -0.2150    2.3143   24.9922 C.3     1  UNL1        0.0883
     30 H          -1.0200    3.4945   23.5316 H       1  UNL1        0.1233
     31 S           4.3523   -0.2229   31.9542 S.O2    1  UNL1        0.0633
     32 O           5.1634    0.9607   31.5168 O.2     1  UNL1       -0.1528
     33 O           3.5412   -1.4066   32.3916 O.2     1  UNL1       -0.1528
     34 C           5.0465   -0.2073   33.2838 C.ar    1  UNL1        0.1222
     35 C           4.2870   -0.5518   34.5305 C.ar    1  UNL1        0.0199
     36 C           4.9812   -0.5361   35.8601 C.ar    1  UNL1        0.0014
     37 C           6.4350   -0.1760   35.9429 C.ar    1  UNL1        0.0001
     38 C           7.1945    0.1684   34.6962 C.ar    1  UNL1        0.0014
     39 C           6.5003    0.1528   33.3666 C.ar    1  UNL1        0.0199
@<TRIPOS>BOND
     1    10    11    1
     2    11    12    2
     3    12    13    1
     4    13    14    2
     5    14    15    1
     6    15    16    2
     7    16     6    1
     8     6     7    2
     9     6     8   am
    10     1     8    1
    11     1     2    1
    12     2     3    1
    13     3    31    1
    14    31    32    2
    15    31    33    2
    16    31    34    1
    17    34    35   ar
    18    35    36   ar
    19    36    37   ar
    20    37    38   ar
    21    38    39   ar
    22     3     4    1
    23     4     5    1
    24     5    20    1
    25    20    21    2
    26    20    22   am
    27    24    22    1
    28    24    25    1
    29    25    26    1
    30    26    27    1
    31    27    28    1
    32    28    29    1
    33    16    17    1
    34    17    18    2
    35    18    19    1
    36    19    11    1
    37    18    14    1
    38     5     1    1
    39    29    24    1
    40    39    34   ar
    41     8     9    1
    42    22    23    1
    43    28    30    1
@<TRIPOS>MOLECULE
*****
 39 43 0 0 0
SMALL
GASTEIGER

@<TRIPOS>ATOM
      1 C           5.2801   -2.1110   28.4060 C.3     1  UNL1        0.0996
      2 C           4.9219   -1.4196   29.6881 C.3     1  UNL1        0.1158
      3 N           5.9233   -1.8253   30.7287 N.3     1  UNL1       -0.1533
      4 C           6.9001   -2.7673   30.0897 C.3     1  UNL1        0.1066
      5 C           6.5026   -2.9438   28.6542 C.3     1  UNL1        0.1134
      6 C           5.1803   -1.2789   25.9468 C.2     1  UNL1        0.2636
      7 O           6.5513   -0.6877   26.0912 O.2     1  UNL1       -0.2685
      8 N           4.5447   -1.9905   27.1042 N.am    1  UNL1       -0.2993
      9 H           3.6449   -2.3785   27.0094 H       1  UNL1        0.1498
     10 C           0.5482    0.4260   19.8426 C.3     1  UNL1        0.0267
     11 C           1.6123   -0.2214   20.6785 C.2     1  UNL1       -0.0394
     12 C           2.4666   -1.3077   20.0954 C.2     1  UNL1       -0.0066
     13 C           3.5307   -1.9552   20.9312 C.2     1  UNL1        0.0182
     14 C           3.7404   -1.5163   22.3501 C.2     1  UNL1        0.0778
     15 N           4.7038   -1.9665   23.4080 N.2     1  UNL1       -0.2411
     16 C           4.4449   -1.1584   24.6450 C.2     1  UNL1        0.1341
     17 C           3.3215   -0.2088   24.3515 C.2     1  UNL1        0.0213
     18 C           2.8861   -0.4300   22.9332 C.2     1  UNL1        0.0012
     19 C           1.8220    0.2174   22.0974 C.3     1  UNL1        0.0499
     20 C           7.2044   -3.8025   27.6442 C.2     1  UNL1        0.2251
     21 O           8.6936   -3.7123   27.4884 O.2     1  UNL1       -0.2750
     22 N           6.4172   -4.7515   26.7899 N.am    1  UNL1       -0.3045
     23 H           5.4398   -4.8107   26.8921 H       1  UNL1        0.1494
     24 C           7.1191   -5.6101   25.7800 C.3     1  UNL1        0.0873
     25 C           7.6439   -6.9581   26.1768 C.3     1  UNL1        0.0224
     26 C           8.3458   -7.8166   25.1667 C.3     1  UNL1        0.0188
     27 C           8.5229   -7.3272   23.7599 C.3     1  UNL1        0.0687
     28 N           7.9980   -5.9792   23.3631 N.3     1  UNL1       -0.2961
     29 C           7.2961   -5.1206   24.3731 C.3     1  UNL1        0.0883
     30 H           7.3400   -6.1327   22.5989 H       1  UNL1        0.1233
     31 S           5.9440   -1.3691   32.1575 S.O2    1  UNL1        0.0633
     32 O           5.5094   -2.7349   32.6000 O.2     1  UNL1       -0.1528
     33 O           6.3786   -0.0033   31.7151 O.2     1  UNL1       -0.1528
     34 C           5.9647   -0.9128   33.5863 C.ar    1  UNL1        0.1222
     35 C           7.2436   -0.4241   34.1990 C.ar    1  UNL1        0.0199
     36 C           7.2643    0.0321   35.6278 C.ar    1  UNL1        0.0014
     37 C           6.0061   -0.0004   36.4438 C.ar    1  UNL1        0.0001
     38 C           4.7272   -0.4891   35.8311 C.ar    1  UNL1        0.0014
     39 C           4.7065   -0.9453   34.4023 C.ar    1  UNL1        0.0199
@<TRIPOS>BOND
     1    10    11    1
     2    11    12    2
     3    12    13    1
     4    13    14    2
     5    14    15    1
     6    15    16    2
     7    16     6    1
     8     6     7    2
     9     6     8   am
    10     1     8    1
    11     1     2    1
    12     2     3    1
    13     3    31    1
    14    31    32    2
    15    31    33    2
    16    31    34    1
    17    34    35   ar
    18    35    36   ar
    19    36    37   ar
    20    37    38   ar
    21    38    39   ar
    22     3     4    1
    23     4     5    1
    24     5    20    1
    25    20    21    2
    26    20    22   am
    27    24    22    1
    28    24    25    1
    29    25    26    1
    30    26    27    1
    31    27    28    1
    32    28    29    1
    33    16    17    1
    34    17    18    2
    35    18    19    1
    36    19    11    1
    37    18    14    1
    38     5     1    1
    39    29    24    1
    40    39    34   ar
    41     8     9    1
    42    22    23    1
    43    28    30    1
@<TRIPOS>MOLECULE
*****
 39 43 0 0 0
SMALL
GASTEIGER

@<TRIPOS>ATOM
      1 C           3.6609   -0.9536   27.8258 C.3     1  UNL1        0.0996
      2 C           2.7477    0.0861   28.4047 C.3     1  UNL1        0.1158
      3 N           3.2146    0.3891   29.7977 N.3     1  UNL1       -0.1533
      4 C           4.4162   -0.4634   30.0796 C.3     1  UNL1        0.1066
      5 C           4.6919   -1.2932   28.8608 C.3     1  UNL1        0.1134
      6 C           4.2147   -0.8655   25.2890 C.2     1  UNL1        0.2636
      7 O           4.9693    0.4138   25.4981 O.2     1  UNL1       -0.2685
      8 N           3.5604   -1.5492   26.4528 N.am    1  UNL1       -0.2993
      9 H           3.0651   -2.3889   26.3155 H       1  UNL1        0.1498
     10 C           4.5101   -5.1029   18.6874 C.3     1  UNL1        0.0267
     11 C           4.1913   -3.9981   19.6507 C.2     1  UNL1       -0.0394
     12 C           3.3797   -2.8203   19.1992 C.2     1  UNL1       -0.0066
     13 C           3.0609   -1.7156   20.1625 C.2     1  UNL1        0.0182
     14 C           3.5537   -1.7887   21.5773 C.2     1  UNL1        0.0778
     15 N           3.3985   -0.8583   22.7436 N.2     1  UNL1       -0.2411
     16 C           4.1142   -1.4611   23.9159 C.2     1  UNL1        0.1341
     17 C           4.7117   -2.7641   23.4742 C.2     1  UNL1        0.0213
     18 C           4.3653   -2.9665   22.0288 C.2     1  UNL1        0.0012
     19 C           4.6841   -4.0713   21.0655 C.3     1  UNL1        0.0499
     20 C           5.8036   -2.2880   28.7047 C.2     1  UNL1        0.2251
     21 O           7.1665   -1.9817   29.2513 O.2     1  UNL1       -0.2750
     22 N           5.5526   -3.5893   28.0018 N.am    1  UNL1       -0.3045
     23 H           4.6582   -3.7904   27.6430 H       1  UNL1        0.1494
     24 C           6.6643   -4.5840   27.8457 C.3     1  UNL1        0.0873
     25 C           7.4158   -4.6719   26.5505 C.3     1  UNL1        0.0224
     26 C           8.5275   -5.6667   26.3944 C.3     1  UNL1        0.0188
     27 C           8.8879   -6.5736   27.5336 C.3     1  UNL1        0.0687
     28 N           8.1364   -6.4857   28.8289 N.3     1  UNL1       -0.2961
     29 C           7.0247   -5.4909   28.9849 C.3     1  UNL1        0.0883
     30 H           8.8228   -6.2764   29.5538 H       1  UNL1        0.1233
     31 S           2.5896    1.3721   30.7428 S.O2    1  UNL1        0.0633
     32 O           1.2833    0.6421   30.6381 O.2     1  UNL1       -0.1528
     33 O           3.8958    2.1020   30.8475 O.2     1  UNL1       -0.1528
     34 C           1.9646    2.3550   31.6879 C.ar    1  UNL1        0.1222
     35 C           0.7484    3.1274   31.2705 C.ar    1  UNL1        0.0199
     36 C           0.1234    4.1103   32.2156 C.ar    1  UNL1        0.0014
     37 C           0.7146    4.3208   33.5780 C.ar    1  UNL1        0.0001
     38 C           1.9307    3.5485   33.9954 C.ar    1  UNL1        0.0014
     39 C           2.5558    2.5655   33.0503 C.ar    1  UNL1        0.0199
@<TRIPOS>BOND
     1    10    11    1
     2    11    12    2
     3    12    13    1
     4    13    14    2
     5    14    15    1
     6    15    16    2
     7    16     6    1
     8     6     7    2
     9     6     8   am
    10     1     8    1
    11     1     2    1
    12     2     3    1
    13     3    31    1
    14    31    32    2
    15    31    33    2
    16    31    34    1
    17    34    35   ar
    18    35    36   ar
    19    36    37   ar
    20    37    38   ar
    21    38    39   ar
    22     3     4    1
    23     4     5    1
    24     5    20    1
    25    20    21    2
    26    20    22   am
    27    24    22    1
    28    24    25    1
    29    25    26    1
    30    26    27    1
    31    27    28    1
    32    28    29    1
    33    16    17    1
    34    17    18    2
    35    18    19    1
    36    19    11    1
    37    18    14    1
    38     5     1    1
    39    29    24    1
    40    39    34   ar
    41     8     9    1
    42    22    23    1
    43    28    30    1
@<TRIPOS>MOLECULE
*****
 39 43 0 0 0
SMALL
GASTEIGER

@<TRIPOS>ATOM
      1 C           3.3887   -0.2188   28.8869 C.3     1  UNL1        0.0996
      2 C           2.4810    0.8658   29.3866 C.3     1  UNL1        0.1158
      3 N           2.8720    1.1830   30.7996 N.3     1  UNL1       -0.1533
      4 C           4.0213    0.2944   31.1731 C.3     1  UNL1        0.1066
      5 C           4.3405   -0.5719   29.9910 C.3     1  UNL1        0.1134
      6 C           3.8597   -0.0777   26.3358 C.2     1  UNL1        0.2636
      7 O           4.4061    1.3079   26.5133 O.2     1  UNL1       -0.2685
      8 N           3.3509   -0.8410   27.5226 N.am    1  UNL1       -0.2993
      9 H           2.9923   -1.7504   27.4061 H       1  UNL1        0.1498
     10 C           4.5695   -4.3726   19.8033 C.3     1  UNL1        0.0267
     11 C           4.1503   -3.2845   20.7468 C.2     1  UNL1       -0.0394
     12 C           3.2466   -2.1860   20.2709 C.2     1  UNL1       -0.0066
     13 C           2.8274   -1.0979   21.2144 C.2     1  UNL1        0.0182
     14 C           3.3120   -1.1082   22.6339 C.2     1  UNL1        0.0778
     15 N           3.0686   -0.1770   23.7844 N.2     1  UNL1       -0.2411
     16 C           3.8220   -0.7000   24.9714 C.2     1  UNL1        0.1341
     17 C           4.5309   -1.9544   24.5546 C.2     1  UNL1        0.0213
     18 C           4.2157   -2.2067   23.1099 C.2     1  UNL1        0.0012
     19 C           4.6349   -3.2948   22.1663 C.3     1  UNL1        0.0499
     20 C           5.4219   -1.6093   29.9246 C.2     1  UNL1        0.2251
     21 O           6.1902   -1.8116   28.6523 O.2     1  UNL1       -0.2750
     22 N           5.7352   -2.4446   31.1306 N.am    1  UNL1       -0.3045
     23 H           5.2310   -2.3118   31.9658 H       1  UNL1        0.1494
     24 C           6.8165   -3.4819   31.0642 C.3     1  UNL1        0.0873
     25 C           6.6915   -4.6360   30.1143 C.3     1  UNL1        0.0224
     26 C           7.7729   -5.6733   30.0479 C.3     1  UNL1        0.0188
     27 C           8.9794   -5.5565   30.9315 C.3     1  UNL1        0.0687
     28 N           9.1045   -4.4024   31.8815 N.3     1  UNL1       -0.2961
     29 C           8.0231   -3.3651   31.9478 C.3     1  UNL1        0.0883
     30 H           9.9666   -3.9140   31.6395 H       1  UNL1        0.1233
     31 S           2.2270    2.2087   31.6838 S.O2    1  UNL1        0.0633
     32 O           3.5082    2.9882   31.7144 O.2     1  UNL1       -0.1528
     33 O           0.9457    1.4293   31.6533 O.2     1  UNL1       -0.1528
     34 C           1.5819    3.2345   32.5681 C.ar    1  UNL1        0.1222
     35 C           0.3473    3.9513   32.1080 C.ar    1  UNL1        0.0199
     36 C          -0.2978    4.9770   32.9922 C.ar    1  UNL1        0.0014
     37 C           0.2919    5.2858   34.3365 C.ar    1  UNL1        0.0001
     38 C           1.5265    4.5690   34.7965 C.ar    1  UNL1        0.0014
     39 C           2.1715    3.5433   33.9123 C.ar    1  UNL1        0.0199
@<TRIPOS>BOND
     1    10    11    1
     2    11    12    2
     3    12    13    1
     4    13    14    2
     5    14    15    1
     6    15    16    2
     7    16     6    1
     8     6     7    2
     9     6     8   am
    10     1     8    1
    11     1     2    1
    12     2     3    1
    13     3    31    1
    14    31    32    2
    15    31    33    2
    16    31    34    1
    17    34    35   ar
    18    35    36   ar
    19    36    37   ar
    20    37    38   ar
    21    38    39   ar
    22     3     4    1
    23     4     5    1
    24     5    20    1
    25    20    21    2
    26    20    22   am
    27    24    22    1
    28    24    25    1
    29    25    26    1
    30    26    27    1
    31    27    28    1
    32    28    29    1
    33    16    17    1
    34    17    18    2
    35    18    19    1
    36    19    11    1
    37    18    14    1
    38     5     1    1
    39    29    24    1
    40    39    34   ar
    41     8     9    1
    42    22    23    1
    43    28    30    1
@<TRIPOS>MOLECULE
*****
 39 43 0 0 0
SMALL
GASTEIGER

@<TRIPOS>ATOM
      1 C           4.7314   -0.2357   30.7422 C.3     1  UNL1        0.0996
      2 C           4.1059    0.6436   31.7841 C.3     1  UNL1        0.1158
      3 N           4.5465    0.1517   33.1310 N.3     1  UNL1       -0.1533
      4 C           5.4443   -1.0315   32.9214 C.3     1  UNL1        0.1066
      5 C           5.5586   -1.2709   31.4450 C.3     1  UNL1        0.1134
      6 C           3.2199   -0.3542   28.6325 C.2     1  UNL1        0.2636
      7 O           2.0514   -0.7380   29.4911 O.2     1  UNL1       -0.2685
      8 N           4.5599   -0.1030   29.2580 N.am    1  UNL1       -0.2993
      9 H           5.3268    0.1489   28.6944 H       1  UNL1        0.1498
     10 C           3.2837   -0.8176   20.7963 C.3     1  UNL1        0.0267
     11 C           2.9598   -0.3599   22.1876 C.2     1  UNL1       -0.0394
     12 C           2.0147    0.7855   22.3993 C.2     1  UNL1       -0.0066
     13 C           1.6907    1.2432   23.7905 C.2     1  UNL1        0.0182
     14 C           2.3118    0.5556   24.9700 C.2     1  UNL1        0.0778
     15 N           2.1829    0.7833   26.4470 N.2     1  UNL1       -0.2411
     16 C           3.0483   -0.2214   27.1482 C.2     1  UNL1        0.1341
     17 C           3.7121   -1.0701   26.1045 C.2     1  UNL1        0.0213
     18 C           3.2569   -0.5898   24.7583 C.2     1  UNL1        0.0012
     19 C           3.5808   -1.0475   23.3671 C.3     1  UNL1        0.0499
     20 C           6.3594   -2.3552   30.7871 C.2     1  UNL1        0.2251
     21 O           7.1650   -2.0523   29.5586 O.2     1  UNL1       -0.2750
     22 N           6.3547   -3.7426   31.3576 N.am    1  UNL1       -0.3045
     23 H           5.8260   -3.9414   32.1639 H       1  UNL1        0.1494
     24 C           7.1556   -4.8268   30.6996 C.3     1  UNL1        0.0873
     25 C           8.4645   -5.2573   31.2924 C.3     1  UNL1        0.0224
     26 C           9.2653   -6.3416   30.6343 C.3     1  UNL1        0.0188
     27 C           8.7572   -6.9953   29.3835 C.3     1  UNL1        0.0687
     28 N           7.4483   -6.5648   28.7907 N.3     1  UNL1       -0.2961
     29 C           6.6474   -5.4805   29.4488 C.3     1  UNL1        0.0883
     30 H           6.8530   -7.3925   28.7589 H       1  UNL1        0.1233
     31 S           4.1576    0.7398   34.4549 S.O2    1  UNL1        0.0633
     32 O           4.8051   -0.4159   35.1586 O.2     1  UNL1       -0.1528
     33 O           3.5101    1.8955   33.7513 O.2     1  UNL1       -0.1528
     34 C           3.7687    1.3279   35.7789 C.ar    1  UNL1        0.1222
     35 C           4.2424    0.6900   37.0511 C.ar    1  UNL1        0.0199
     36 C           3.8535    1.2781   38.3751 C.ar    1  UNL1        0.0014
     37 C           2.9908    2.5042   38.4267 C.ar    1  UNL1        0.0001
     38 C           2.5171    3.1421   37.1546 C.ar    1  UNL1        0.0014
     39 C           2.9060    2.5539   35.8306 C.ar    1  UNL1        0.0199
@<TRIPOS>BOND
     1    10    11    1
     2    11    12    2
     3    12    13    1
     4    13    14    2
     5    14    15    1
     6    15    16    2
     7    16     6    1
     8     6     7    2
     9     6     8   am
    10     1     8    1
    11     1     2    1
    12     2     3    1
    13     3    31    1
    14    31    32    2
    15    31    33    2
    16    31    34    1
    17    34    35   ar
    18    35    36   ar
    19    36    37   ar
    20    37    38   ar
    21    38    39   ar
    22     3     4    1
    23     4     5    1
    24     5    20    1
    25    20    21    2
    26    20    22   am
    27    24    22    1
    28    24    25    1
    29    25    26    1
    30    26    27    1
    31    27    28    1
    32    28    29    1
    33    16    17    1
    34    17    18    2
    35    18    19    1
    36    19    11    1
    37    18    14    1
    38     5     1    1
    39    29    24    1
    40    39    34   ar
    41     8     9    1
    42    22    23    1
    43    28    30    1
@<TRIPOS>MOLECULE
*****
 39 43 0 0 0
SMALL
GASTEIGER

@<TRIPOS>ATOM
      1 C           3.8642    0.2528   27.9813 C.3     1  UNL1        0.0996
      2 C           3.1654    0.5806   26.6951 C.3     1  UNL1        0.1158
      3 N           3.6046   -0.4146   25.6623 N.3     1  UNL1       -0.1533
      4 C           4.5748   -1.3575   26.3102 C.3     1  UNL1        0.1066
      5 C           4.7352   -0.9450   27.7434 C.3     1  UNL1        0.1134
      6 C           2.6195    0.6254   30.2311 C.2     1  UNL1        0.2636
      7 O           1.6679   -0.4821   29.8881 O.2     1  UNL1       -0.2685
      8 N           3.7177    0.9928   29.2777 N.am    1  UNL1       -0.2993
      9 H           4.3423    1.7198   29.5029 H       1  UNL1        0.1498
     10 C           2.6297    3.3449   37.5951 C.3     1  UNL1        0.0267
     11 C           2.3752    3.2452   36.1202 C.2     1  UNL1       -0.0394
     12 C           1.6123    4.3277   35.4159 C.2     1  UNL1       -0.0066
     13 C           1.3577    4.2281   33.9411 C.2     1  UNL1        0.0182
     14 C           1.8661    3.0458   33.1704 C.2     1  UNL1        0.0778
     15 N           1.7697    2.6764   31.7199 N.2     1  UNL1       -0.2411
     16 C           2.4730    1.3655   31.5276 C.2     1  UNL1        0.1341
     17 C           3.0041    0.9247   32.8594 C.2     1  UNL1        0.0213
     18 C           2.6289    1.9633   33.8747 C.2     1  UNL1        0.0012
     19 C           2.8835    2.0629   35.3496 C.3     1  UNL1        0.0499
     20 C           5.6126   -1.6130   28.7602 C.2     1  UNL1        0.2251
     21 O           5.7766   -1.0077   30.1228 O.2     1  UNL1       -0.2750
     22 N           6.3260   -2.8865   28.4145 N.am    1  UNL1       -0.3045
     23 H           6.2184   -3.2838   27.5201 H       1  UNL1        0.1494
     24 C           7.2034   -3.5544   29.4312 C.3     1  UNL1        0.0873
     25 C           8.6585   -3.7720   29.1392 C.3     1  UNL1        0.0224
     26 C           9.5358   -4.4400   30.1561 C.3     1  UNL1        0.0188
     27 C           8.9580   -4.8904   31.4650 C.3     1  UNL1        0.0687
     28 N           7.5029   -4.6729   31.7571 N.3     1  UNL1       -0.2961
     29 C           6.6256   -4.0049   30.7402 C.3     1  UNL1        0.0883
     30 H           7.4540   -4.1078   32.6049 H       1  UNL1        0.1233
     31 S           3.1529   -0.4592   24.2326 S.O2    1  UNL1        0.0633
     32 O           1.9407    0.3487   24.5904 O.2     1  UNL1       -0.1528
     33 O           4.3651   -1.2670   23.8748 O.2     1  UNL1       -0.1528
     34 C           2.7012   -0.5037   22.8029 C.ar    1  UNL1        0.1222
     35 C           1.6443    0.4450   22.3205 C.ar    1  UNL1        0.0199
     36 C           1.1926    0.4005   20.8908 C.ar    1  UNL1        0.0014
     37 C           1.7978   -0.5927   19.9436 C.ar    1  UNL1        0.0001
     38 C           2.8547   -1.5414   20.4260 C.ar    1  UNL1        0.0014
     39 C           3.3065   -1.4969   21.8557 C.ar    1  UNL1        0.0199
@<TRIPOS>BOND
     1    10    11    1
     2    11    12    2
     3    12    13    1
     4    13    14    2
     5    14    15    1
     6    15    16    2
     7    16     6    1
     8     6     7    2
     9     6     8   am
    10     1     8    1
    11     1     2    1
    12     2     3    1
    13     3    31    1
    14    31    32    2
    15    31    33    2
    16    31    34    1
    17    34    35   ar
    18    35    36   ar
    19    36    37   ar
    20    37    38   ar
    21    38    39   ar
    22     3     4    1
    23     4     5    1
    24     5    20    1
    25    20    21    2
    26    20    22   am
    27    24    22    1
    28    24    25    1
    29    25    26    1
    30    26    27    1
    31    27    28    1
    32    28    29    1
    33    16    17    1
    34    17    18    2
    35    18    19    1
    36    19    11    1
    37    18    14    1
    38     5     1    1
    39    29    24    1
    40    39    34   ar
    41     8     9    1
    42    22    23    1
    43    28    30    1
@<TRIPOS>MOLECULE
*****
 39 43 0 0 0
SMALL
GASTEIGER

@<TRIPOS>ATOM
      1 C           3.9063   -0.0396   29.1897 C.3     1  UNL1        0.0996
      2 C           4.6905   -1.2755   28.8615 C.3     1  UNL1        0.1158
      3 N           5.4906   -1.6521   30.0733 N.3     1  UNL1       -0.1533
      4 C           5.2007   -0.6490   31.1502 C.3     1  UNL1        0.1066
      5 C           4.2216    0.3475   30.6041 C.3     1  UNL1        0.1134
      6 C           1.4908    0.6253   28.5019 C.2     1  UNL1        0.2636
      7 O           0.9459   -0.1535   29.6623 O.2     1  UNL1       -0.2685
      8 N           2.9710    0.6822   28.2656 N.am    1  UNL1       -0.2993
      9 H           3.3285    1.1934   27.5040 H       1  UNL1        0.1498
     10 C          -2.3984    4.0447   22.6023 C.3     1  UNL1        0.0267
     11 C          -2.0462    3.5640   23.9788 C.2     1  UNL1       -0.0394
     12 C          -2.9617    3.8530   25.1313 C.2     1  UNL1       -0.0066
     13 C          -2.6095    3.3723   26.5078 C.2     1  UNL1        0.0182
     14 C          -1.3417    2.6026   26.7319 C.2     1  UNL1        0.0778
     15 N          -0.7351    2.0054   27.9669 N.2     1  UNL1       -0.2411
     16 C           0.5554    1.3472   27.5777 C.2     1  UNL1        0.1341
     17 C           0.7464    1.5377   26.1022 C.2     1  UNL1        0.0213
     18 C          -0.4262    2.3136   25.5795 C.2     1  UNL1        0.0012
     19 C          -0.7784    2.7943   24.2029 C.3     1  UNL1        0.0499
     20 C           3.6569    1.5246   31.3428 C.2     1  UNL1        0.2251
     21 O           4.4516    2.7919   31.4538 O.2     1  UNL1       -0.2750
     22 N           2.2975    1.4344   31.9705 N.am    1  UNL1       -0.3045
     23 H           1.7759    0.6026   31.8977 H       1  UNL1        0.1494
     24 C           1.7329    2.6114   32.7092 C.3     1  UNL1        0.0873
     25 C           0.7200    3.4973   32.0464 C.3     1  UNL1        0.0224
     26 C           0.1555    4.6744   32.7851 C.3     1  UNL1        0.0188
     27 C           0.6038    4.9656   34.1866 C.3     1  UNL1        0.0687
     28 N           1.6167    4.0797   34.8495 N.3     1  UNL1       -0.2961
     29 C           2.1813    2.9026   34.1107 C.3     1  UNL1        0.0883
     30 H           1.1796    3.7143   35.6955 H       1  UNL1        0.1233
     31 S           6.4176   -2.8257   30.1879 S.O2    1  UNL1        0.0633
     32 O           5.8956   -3.1034   31.5664 O.2     1  UNL1       -0.1528
     33 O           6.9396   -2.5480   28.8093 O.2     1  UNL1       -0.1528
     34 C           7.3447   -3.9993   30.3025 C.ar    1  UNL1        0.1222
     35 C           7.1027   -5.2294   29.4790 C.ar    1  UNL1        0.0199
     36 C           8.0298   -6.4030   29.5935 C.ar    1  UNL1        0.0014
     37 C           9.1988   -6.3465   30.5317 C.ar    1  UNL1        0.0001
     38 C           9.4409   -5.1165   31.3552 C.ar    1  UNL1        0.0014
     39 C           8.5138   -3.9429   31.2406 C.ar    1  UNL1        0.0199
@<TRIPOS>BOND
     1    10    11    1
     2    11    12    2
     3    12    13    1
     4    13    14    2
     5    14    15    1
     6    15    16    2
     7    16     6    1
     8     6     7    2
     9     6     8   am
    10     1     8    1
    11     1     2    1
    12     2     3    1
    13     3    31    1
    14    31    32    2
    15    31    33    2
    16    31    34    1
    17    34    35   ar
    18    35    36   ar
    19    36    37   ar
    20    37    38   ar
    21    38    39   ar
    22     3     4    1
    23     4     5    1
    24     5    20    1
    25    20    21    2
    26    20    22   am
    27    24    22    1
    28    24    25    1
    29    25    26    1
    30    26    27    1
    31    27    28    1
    32    28    29    1
    33    16    17    1
    34    17    18    2
    35    18    19    1
    36    19    11    1
    37    18    14    1
    38     5     1    1
    39    29    24    1
    40    39    34   ar
    41     8     9    1
    42    22    23    1
    43    28    30    1
@<TRIPOS>MOLECULE
*****
 39 43 0 0 0
SMALL
GASTEIGER

@<TRIPOS>ATOM
      1 C           0.6550    1.9395   29.8172 C.3     1  UNL1        0.0996
      2 C           0.5569    2.6135   31.1537 C.3     1  UNL1        0.1158
      3 N           1.6928    2.1256   32.0032 N.3     1  UNL1       -0.1533
      4 C           2.4928    1.1502   31.1918 C.3     1  UNL1        0.1066
      5 C           1.8514    1.0351   29.8408 C.3     1  UNL1        0.1134
      6 C           0.1577    2.9380   27.4708 C.2     1  UNL1        0.2636
      7 O           1.5292    3.5445   27.4382 O.2     1  UNL1       -0.2685
      8 N          -0.2794    2.1354   28.6603 N.am    1  UNL1       -0.2993
      9 H          -1.1796    1.7374   28.6817 H       1  UNL1        0.1498
     10 C          -5.8116    3.9137   22.4669 C.3     1  UNL1        0.0267
     11 C          -4.4178    3.7595   22.9992 C.2     1  UNL1       -0.0394
     12 C          -3.2485    3.7905   22.0601 C.2     1  UNL1       -0.0066
     13 C          -1.8547    3.6363   22.5925 C.2     1  UNL1        0.0182
     14 C          -1.6301    3.4510   24.0639 C.2     1  UNL1        0.0778
     15 N          -0.3801    3.2742   24.8741 N.2     1  UNL1       -0.2411
     16 C          -0.7768    3.1340   26.3139 C.2     1  UNL1        0.1341
     17 C          -2.2719    3.2241   26.3936 C.2     1  UNL1        0.0213
     18 C          -2.7993    3.4200   25.0030 C.2     1  UNL1        0.0012
     19 C          -4.1931    3.5742   24.4707 C.3     1  UNL1        0.0499
     20 C           2.3236    0.1680   28.7116 C.2     1  UNL1        0.2251
     21 O           2.0255   -1.3021   28.7196 O.2     1  UNL1       -0.2750
     22 N           3.0938    0.7709   27.5743 N.am    1  UNL1       -0.3045
     23 H           3.2894    1.7357   27.5690 H       1  UNL1        0.1494
     24 C           3.5659   -0.0963   26.4452 C.3     1  UNL1        0.0873
     25 C           2.9894    0.0807   25.0717 C.3     1  UNL1        0.0224
     26 C           3.4616   -0.7865   23.9426 C.3     1  UNL1        0.0188
     27 C           4.5103   -1.8308   24.1869 C.3     1  UNL1        0.0687
     28 N           5.0868   -2.0079   25.5604 N.3     1  UNL1       -0.2961
     29 C           4.6146   -1.1407   26.6895 C.3     1  UNL1        0.0883
     30 H           6.0931   -1.8625   25.4783 H       1  UNL1        0.1233
     31 S           1.9785    2.5404   33.4162 S.O2    1  UNL1        0.0633
     32 O           2.8826    1.3549   33.5814 O.2     1  UNL1       -0.1528
     33 O           1.0744    3.7259   33.2509 O.2     1  UNL1       -0.1528
     34 C           2.2642    2.9552   34.8291 C.ar    1  UNL1        0.1222
     35 C           3.1413    2.1034   35.6979 C.ar    1  UNL1        0.0199
     36 C           3.4270    2.5182   37.1109 C.ar    1  UNL1        0.0014
     37 C           2.8355    3.7848   37.6549 C.ar    1  UNL1        0.0001
     38 C           1.9584    4.6366   36.7860 C.ar    1  UNL1        0.0014
     39 C           1.6727    4.2218   35.3731 C.ar    1  UNL1        0.0199
@<TRIPOS>BOND
     1    10    11    1
     2    11    12    2
     3    12    13    1
     4    13    14    2
     5    14    15    1
     6    15    16    2
     7    16     6    1
     8     6     7    2
     9     6     8   am
    10     1     8    1
    11     1     2    1
    12     2     3    1
    13     3    31    1
    14    31    32    2
    15    31    33    2
    16    31    34    1
    17    34    35   ar
    18    35    36   ar
    19    36    37   ar
    20    37    38   ar
    21    38    39   ar
    22     3     4    1
    23     4     5    1
    24     5    20    1
    25    20    21    2
    26    20    22   am
    27    24    22    1
    28    24    25    1
    29    25    26    1
    30    26    27    1
    31    27    28    1
    32    28    29    1
    33    16    17    1
    34    17    18    2
    35    18    19    1
    36    19    11    1
    37    18    14    1
    38     5     1    1
    39    29    24    1
    40    39    34   ar
    41     8     9    1
    42    22    23    1
    43    28    30    1
