@<TRIPOS>MOLECULE
*****
 25 29 0 0 0
SMALL
GASTEIGER

@<TRIPOS>ATOM
      1 C          -6.3116  -17.7347   22.5304 C.3     1  UNL1        0.0003
      2 C          -6.0634  -18.8001   21.5040 C.3     1  UNL1        0.0039
      3 C          -4.9164  -18.2265   22.2823 C.3     1  UNL1        0.0256
      4 C          -3.5212  -18.7184   22.0341 C.2     1  UNL1        0.0003
      5 C          -2.2021  -18.3443   22.6423 C.2     1  UNL1        0.1151
      6 N          -1.1386  -19.1785   21.9918 N.2     1  UNL1       -0.1514
      7 N          -1.8005  -20.0682   20.9816 N.2     1  UNL1       -0.1723
      8 C          -3.2731  -19.7838   21.0078 C.3     1  UNL1        0.1449
      9 C          -4.4200  -20.3573   20.2296 C.3     1  UNL1        0.0305
     10 C          -5.8152  -19.8654   20.4778 C.3     1  UNL1        0.0026
     11 C          -6.9621  -20.4389   19.6995 C.3     1  UNL1        0.0001
     12 C          -8.3573  -19.9471   19.9477 C.3     1  UNL1        0.0000
     13 C          -8.6056  -18.8817   20.9741 C.3     1  UNL1        0.0001
     14 C          -7.4586  -18.3082   21.7522 C.3     1  UNL1        0.0003
     15 C          -7.7068  -17.2428   22.7786 C.3     1  UNL1        0.0001
     16 C          -9.1019  -16.7509   23.0267 C.3     1  UNL1        0.0022
     17 C         -10.2489  -17.3244   22.2486 C.3     1  UNL1        0.0226
     18 C         -10.4714  -16.2584   23.2800 C.3     1  UNL1        0.0023
     19 C         -10.0007  -18.3898   21.2222 C.3     1  UNL1        0.0022
     20 C         -11.3198  -18.7638   20.6140 C.3     1  UNL1        0.0025
     21 C         -12.3833  -17.9296   21.2645 C.3     1  UNL1        0.0269
     22 C         -11.7214  -17.0400   22.2747 C.3     1  UNL1        0.0883
     23 C         -13.1166  -16.5482   22.5228 C.3     1  UNL1        0.0293
     24 O         -11.5297  -16.0074   23.3456 O.3     1  UNL1       -0.3867
     25 H         -12.3883  -15.6224   23.5810 H       1  UNL1        0.2102
@<TRIPOS>BOND
     1     2     1    1
     2     2     3    1
     3     3     4    1
     4     4     5    2
     5     5     6    1
     6     6     7    2
     7     7     8    1
     8     8     9    1
     9    10     9    1
    10    10    11    1
    11    11    12    1
    12    13    12    1
    13    13    14    1
    14    14    15    1
    15    15    16    1
    16    16    17    1
    17    17    18    1
    18    17    19    1
    19    19    20    1
    20    20    21    1
    21    21    22    1
    22    22    23    1
    23    22    24    1
    24    10     2    1
    25    19    13    1
    26    14     2    1
    27    22    17    1
    28     8     4    1
    29    24    25    1
@<TRIPOS>MOLECULE
*****
 25 29 0 0 0
SMALL
GASTEIGER

@<TRIPOS>ATOM
      1 C          -6.7411  -19.1915   21.1932 C.3     1  UNL1        0.0003
      2 C          -5.9989  -18.2707   22.1159 C.3     1  UNL1        0.0039
      3 C          -5.2470  -19.2766   21.2956 C.3     1  UNL1        0.0256
      4 C          -3.7529  -19.3616   21.3980 C.2     1  UNL1        0.0003
      5 C          -2.7490  -20.2452   20.7187 C.2     1  UNL1        0.1151
      6 N          -1.3864  -19.8704   21.2215 N.2     1  UNL1       -0.1514
      7 N          -1.5482  -18.7552   22.2116 N.2     1  UNL1       -0.1723
      8 C          -3.0108  -18.4408   22.3207 C.3     1  UNL1        0.1449
      9 C          -3.7627  -17.4349   23.1409 C.3     1  UNL1        0.0305
     10 C          -5.2568  -17.3499   23.0385 C.3     1  UNL1        0.0026
     11 C          -6.0087  -16.3440   23.8588 C.3     1  UNL1        0.0001
     12 C          -7.5028  -16.2590   23.7564 C.3     1  UNL1        0.0000
     13 C          -8.2450  -17.1798   22.8337 C.3     1  UNL1        0.0001
     14 C          -7.4931  -18.1857   22.0135 C.3     1  UNL1        0.0003
     15 C          -8.2352  -19.1065   21.0908 C.3     1  UNL1        0.0001
     16 C          -9.7293  -19.0215   20.9884 C.3     1  UNL1        0.0022
     17 C         -10.4812  -18.0157   21.8086 C.3     1  UNL1        0.0226
     18 C         -11.2005  -18.9473   20.8789 C.3     1  UNL1        0.0023
     19 C          -9.7391  -17.0948   22.7313 C.3     1  UNL1        0.0022
     20 C         -10.7430  -16.2113   23.4106 C.3     1  UNL1        0.0025
     21 C         -12.1056  -16.5861   22.9078 C.3     1  UNL1        0.0269
     22 C         -11.9438  -17.7012   21.9177 C.3     1  UNL1        0.0883
     23 C         -13.4379  -17.6162   21.8153 C.3     1  UNL1        0.0293
     24 O         -12.2744  -18.7659   20.9142 O.3     1  UNL1       -0.3867
     25 H         -13.2340  -18.7923   20.7751 H       1  UNL1        0.2102
@<TRIPOS>BOND
     1     2     1    1
     2     2     3    1
     3     3     4    1
     4     4     5    2
     5     5     6    1
     6     6     7    2
     7     7     8    1
     8     8     9    1
     9    10     9    1
    10    10    11    1
    11    11    12    1
    12    13    12    1
    13    13    14    1
    14    14    15    1
    15    15    16    1
    16    16    17    1
    17    17    18    1
    18    17    19    1
    19    19    20    1
    20    20    21    1
    21    21    22    1
    22    22    23    1
    23    22    24    1
    24    10     2    1
    25    19    13    1
    26    14     2    1
    27    22    17    1
    28     8     4    1
    29    24    25    1
@<TRIPOS>MOLECULE
*****
 25 29 0 0 0
SMALL
GASTEIGER

@<TRIPOS>ATOM
      1 C          -8.0599  -17.8562   22.7017 C.3     1  UNL1        0.0003
      2 C          -8.7688  -18.4532   21.5222 C.3     1  UNL1        0.0039
      3 C          -9.5554  -17.7826   22.6093 C.3     1  UNL1        0.0256
      4 C         -11.0507  -17.7090   22.5169 C.2     1  UNL1        0.0003
      5 C         -12.0846  -17.1159   23.4275 C.2     1  UNL1        0.1151
      6 N         -13.4324  -17.3464   22.8108 N.2     1  UNL1       -0.1514
      7 N         -13.2314  -18.0820   21.5190 N.2     1  UNL1       -0.1723
      8 C         -11.7594  -18.3061   21.3374 C.3     1  UNL1        0.1449
      9 C         -10.9729  -18.9767   20.2504 C.3     1  UNL1        0.0305
     10 C          -9.4776  -19.0502   20.3428 C.3     1  UNL1        0.0026
     11 C          -8.6910  -19.7209   19.2557 C.3     1  UNL1        0.0001
     12 C          -7.1957  -19.7944   19.3482 C.3     1  UNL1        0.0000
     13 C          -6.4868  -19.1974   20.5277 C.3     1  UNL1        0.0001
     14 C          -7.2734  -18.5268   21.6147 C.3     1  UNL1        0.0003
     15 C          -6.5646  -17.9297   22.7942 C.3     1  UNL1        0.0001
     16 C          -5.0693  -18.0032   22.8867 C.3     1  UNL1        0.0022
     17 C          -4.2827  -18.6738   21.7997 C.3     1  UNL1        0.0226
     18 C          -3.5971  -18.0694   22.9889 C.3     1  UNL1        0.0023
     19 C          -4.9915  -19.2709   20.6202 C.3     1  UNL1        0.0022
     20 C          -3.9576  -19.8640   19.7096 C.3     1  UNL1        0.0025
     21 C          -2.6098  -19.6335   20.3263 C.3     1  UNL1        0.0269
     22 C          -2.8107  -18.8979   21.6180 C.3     1  UNL1        0.0883
     23 C          -1.3154  -18.9715   21.7104 C.3     1  UNL1        0.0293
     24 O          -2.5181  -18.2014   22.9138 O.3     1  UNL1       -0.3867
     25 H          -1.5605  -18.1953   23.0685 H       1  UNL1        0.2102
@<TRIPOS>BOND
     1     2     1    1
     2     2     3    1
     3     3     4    1
     4     4     5    2
     5     5     6    1
     6     6     7    2
     7     7     8    1
     8     8     9    1
     9    10     9    1
    10    10    11    1
    11    11    12    1
    12    13    12    1
    13    13    14    1
    14    14    15    1
    15    15    16    1
    16    16    17    1
    17    17    18    1
    18    17    19    1
    19    19    20    1
    20    20    21    1
    21    21    22    1
    22    22    23    1
    23    22    24    1
    24    10     2    1
    25    19    13    1
    26    14     2    1
    27    22    17    1
    28     8     4    1
    29    24    25    1
@<TRIPOS>MOLECULE
*****
 25 29 0 0 0
SMALL
GASTEIGER

@<TRIPOS>ATOM
      1 C         -13.9838   -8.1072   18.5076 C.3     1  UNL1        0.0003
      2 C         -14.0552   -6.6813   18.9678 C.3     1  UNL1        0.0039
      3 C         -12.7302   -7.2908   18.6173 C.3     1  UNL1        0.0256
      4 C         -11.4767   -6.4744   18.7270 C.2     1  UNL1        0.0003
      5 C         -10.0387   -6.8014   18.4525 C.2     1  UNL1        0.1151
      6 N          -9.2215   -5.5776   18.7431 N.2     1  UNL1       -0.1514
      7 N         -10.1543   -4.4942   19.1972 N.2     1  UNL1       -0.1723
      8 C         -11.5481   -5.0485   19.1872 C.3     1  UNL1        0.1449
      9 C         -12.8732   -4.4391   19.5377 C.3     1  UNL1        0.0305
     10 C         -14.1267   -5.2555   19.4280 C.3     1  UNL1        0.0026
     11 C         -15.4518   -4.6460   19.7786 C.3     1  UNL1        0.0001
     12 C         -16.7053   -5.4624   19.6689 C.3     1  UNL1        0.0000
     13 C         -16.6339   -6.8883   19.2087 C.3     1  UNL1        0.0001
     14 C         -15.3089   -7.4978   18.8581 C.3     1  UNL1        0.0003
     15 C         -15.2374   -8.9236   18.3979 C.3     1  UNL1        0.0001
     16 C         -16.4909   -9.7401   18.2883 C.3     1  UNL1        0.0022
     17 C         -17.8159   -9.1307   18.6388 C.3     1  UNL1        0.0226
     18 C         -17.7185  -10.5542   18.1762 C.3     1  UNL1        0.0023
     19 C         -17.8874   -7.7048   19.0990 C.3     1  UNL1        0.0022
     20 C         -19.3254   -7.3778   19.3734 C.3     1  UNL1        0.0025
     21 C         -20.1426   -8.6016   19.0829 C.3     1  UNL1        0.0269
     22 C         -19.2097   -9.6849   18.6288 C.3     1  UNL1        0.0883
     23 C         -20.4633  -10.5013   18.5191 C.3     1  UNL1        0.0293
     24 O         -18.7062  -11.0135   18.1481 O.3     1  UNL1       -0.3867
     25 H         -19.4529  -11.6237   18.0435 H       1  UNL1        0.2102
@<TRIPOS>BOND
     1     2     1    1
     2     2     3    1
     3     3     4    1
     4     4     5    2
     5     5     6    1
     6     6     7    2
     7     7     8    1
     8     8     9    1
     9    10     9    1
    10    10    11    1
    11    11    12    1
    12    13    12    1
    13    13    14    1
    14    14    15    1
    15    15    16    1
    16    16    17    1
    17    17    18    1
    18    17    19    1
    19    19    20    1
    20    20    21    1
    21    21    22    1
    22    22    23    1
    23    22    24    1
    24    10     2    1
    25    19    13    1
    26    14     2    1
    27    22    17    1
    28     8     4    1
    29    24    25    1
@<TRIPOS>MOLECULE
*****
 25 29 0 0 0
SMALL
GASTEIGER

@<TRIPOS>ATOM
      1 C          -8.2362  -18.8919   21.4118 C.3     1  UNL1        0.0003
      2 C          -8.5141  -17.7852   22.3856 C.3     1  UNL1        0.0039
      3 C          -9.6485  -18.4572   21.6702 C.3     1  UNL1        0.0256
      4 C         -11.0606  -18.0225   21.9287 C.2     1  UNL1        0.0003
      5 C         -12.3730  -18.4947   21.3769 C.2     1  UNL1        0.1151
      6 N         -13.4620  -17.6800   22.0096 N.2     1  UNL1       -0.1514
      7 N         -12.8225  -16.7042   22.9525 N.2     1  UNL1       -0.1723
      8 C         -11.3384  -16.9159   22.9025 C.3     1  UNL1        0.1449
      9 C         -10.2040  -16.2440   23.6178 C.3     1  UNL1        0.0305
     10 C          -8.7918  -16.6787   23.3593 C.3     1  UNL1        0.0026
     11 C          -7.6575  -16.0067   24.0747 C.3     1  UNL1        0.0001
     12 C          -6.2453  -16.4414   23.8163 C.3     1  UNL1        0.0000
     13 C          -5.9674  -17.5481   22.8425 C.3     1  UNL1        0.0001
     14 C          -7.1018  -18.2200   22.1272 C.3     1  UNL1        0.0003
     15 C          -6.8240  -19.3266   21.1534 C.3     1  UNL1        0.0001
     16 C          -5.4119  -19.7613   20.8949 C.3     1  UNL1        0.0022
     17 C          -4.2775  -19.0894   21.6102 C.3     1  UNL1        0.0226
     18 C          -4.0254  -20.1982   20.6320 C.3     1  UNL1        0.0023
     19 C          -4.5553  -17.9828   22.5840 C.3     1  UNL1        0.0022
     20 C          -3.2428  -17.5105   23.1358 C.3     1  UNL1        0.0025
     21 C          -2.1539  -18.3253   22.5031 C.3     1  UNL1        0.0269
     22 C          -2.7934  -19.3011   21.5602 C.3     1  UNL1        0.0883
     23 C          -1.3812  -19.7357   21.3018 C.3     1  UNL1        0.0293
     24 O          -2.9575  -20.3993   20.5519 O.3     1  UNL1       -0.3867
     25 H          -2.0862  -20.7535   20.3148 H       1  UNL1        0.2102
@<TRIPOS>BOND
     1     2     1    1
     2     2     3    1
     3     3     4    1
     4     4     5    2
     5     5     6    1
     6     6     7    2
     7     7     8    1
     8     8     9    1
     9    10     9    1
    10    10    11    1
    11    11    12    1
    12    13    12    1
    13    13    14    1
    14    14    15    1
    15    15    16    1
    16    16    17    1
    17    17    18    1
    18    17    19    1
    19    19    20    1
    20    20    21    1
    21    21    22    1
    22    22    23    1
    23    22    24    1
    24    10     2    1
    25    19    13    1
    26    14     2    1
    27    22    17    1
    28     8     4    1
    29    24    25    1
@<TRIPOS>MOLECULE
*****
 25 29 0 0 0
SMALL
GASTEIGER

@<TRIPOS>ATOM
      1 C         -14.4496   -2.7428   19.6196 C.3     1  UNL1        0.0003
      2 C         -13.8971   -1.4651   19.0607 C.3     1  UNL1        0.0039
      3 C         -15.2403   -1.4727   19.7284 C.3     1  UNL1        0.0256
      4 C         -16.0309   -0.2027   19.8372 C.2     1  UNL1        0.0003
      5 C         -17.3733    0.0957   20.4363 C.2     1  UNL1        0.1151
      6 N         -17.6504    1.5578   20.2477 N.2     1  UNL1       -0.1514
      7 N         -16.4793    2.1630   19.5320 N.2     1  UNL1       -0.1723
      8 C         -15.4783    1.0750   19.2784 C.3     1  UNL1        0.1449
      9 C         -14.1352    1.0825   18.6107 C.3     1  UNL1        0.0305
     10 C         -13.3446   -0.1876   18.5019 C.3     1  UNL1        0.0026
     11 C         -12.0013   -0.1799   17.8342 C.3     1  UNL1        0.0001
     12 C         -11.2107   -1.4500   17.7254 C.3     1  UNL1        0.0000
     13 C         -11.7632   -2.7277   18.2843 C.3     1  UNL1        0.0001
     14 C         -13.1064   -2.7353   18.9519 C.3     1  UNL1        0.0003
     15 C         -13.6590   -4.0129   19.5108 C.3     1  UNL1        0.0001
     16 C         -12.8684   -5.2830   19.4020 C.3     1  UNL1        0.0022
     17 C         -11.5252   -5.2754   18.7343 C.3     1  UNL1        0.0226
     18 C         -12.0992   -6.5400   19.3009 C.3     1  UNL1        0.0023
     19 C         -10.9727   -3.9978   18.1755 C.3     1  UNL1        0.0022
     20 C          -9.6302   -4.2962   17.5764 C.3     1  UNL1        0.0025
     21 C          -9.3532   -5.7582   17.7650 C.3     1  UNL1        0.0269
     22 C         -10.5243   -6.3634   18.4807 C.3     1  UNL1        0.0883
     23 C          -9.7337   -7.6334   18.3718 C.3     1  UNL1        0.0293
     24 O         -11.4129   -7.3721   19.1461 O.3     1  UNL1       -0.3867
     25 H         -10.9846   -8.2423   19.1278 H       1  UNL1        0.2102
@<TRIPOS>BOND
     1     2     1    1
     2     2     3    1
     3     3     4    1
     4     4     5    2
     5     5     6    1
     6     6     7    2
     7     7     8    1
     8     8     9    1
     9    10     9    1
    10    10    11    1
    11    11    12    1
    12    13    12    1
    13    13    14    1
    14    14    15    1
    15    15    16    1
    16    16    17    1
    17    17    18    1
    18    17    19    1
    19    19    20    1
    20    20    21    1
    21    21    22    1
    22    22    23    1
    23    22    24    1
    24    10     2    1
    25    19    13    1
    26    14     2    1
    27    22    17    1
    28     8     4    1
    29    24    25    1
@<TRIPOS>MOLECULE
*****
 25 29 0 0 0
SMALL
GASTEIGER

@<TRIPOS>ATOM
      1 C         -13.1963   -5.4933   17.8701 C.3     1  UNL1        0.0003
      2 C         -13.9334   -4.3481   18.4988 C.3     1  UNL1        0.0039
      3 C         -12.6160   -4.1109   17.8218 C.3     1  UNL1        0.0256
      4 C         -12.0358   -2.7285   17.7736 C.2     1  UNL1        0.0003
      5 C         -10.7660   -2.1931   17.1811 C.2     1  UNL1        0.1151
      6 N         -10.7184   -0.7170   17.4436 N.2     1  UNL1       -0.1514
      7 N         -11.9588   -0.3402   18.1983 N.2     1  UNL1       -0.1723
      8 C         -12.7729   -1.5834   18.4023 C.3     1  UNL1        0.1449
      9 C         -14.0903   -1.8206   19.0792 C.3     1  UNL1        0.0305
     10 C         -14.6705   -3.2030   19.1274 C.3     1  UNL1        0.0026
     11 C         -15.9879   -3.4402   19.8044 C.3     1  UNL1        0.0001
     12 C         -16.5681   -4.8226   19.8527 C.3     1  UNL1        0.0000
     13 C         -15.8310   -5.9678   19.2240 C.3     1  UNL1        0.0001
     14 C         -14.5136   -5.7306   18.5471 C.3     1  UNL1        0.0003
     15 C         -13.7765   -6.8757   17.9184 C.3     1  UNL1        0.0001
     16 C         -14.3567   -8.2581   17.9666 C.3     1  UNL1        0.0022
     17 C         -15.6740   -8.4954   18.6436 C.3     1  UNL1        0.0226
     18 C         -14.9179   -9.6240   18.0077 C.3     1  UNL1        0.0023
     19 C         -16.4112   -7.3502   19.2722 C.3     1  UNL1        0.0022
     20 C         -17.6809   -7.8857   19.8647 C.3     1  UNL1        0.0025
     21 C         -17.7285   -9.3617   19.6022 C.3     1  UNL1        0.0269
     22 C         -16.4882   -9.7386   18.8475 C.3     1  UNL1        0.0883
     23 C         -17.0684  -11.1209   18.8958 C.3     1  UNL1        0.0293
     24 O         -15.4630  -10.5603   18.1239 O.3     1  UNL1       -0.3867
     25 H         -15.7494  -11.4867   18.1000 H       1  UNL1        0.2102
@<TRIPOS>BOND
     1     2     1    1
     2     2     3    1
     3     3     4    1
     4     4     5    2
     5     5     6    1
     6     6     7    2
     7     7     8    1
     8     8     9    1
     9    10     9    1
    10    10    11    1
    11    11    12    1
    12    13    12    1
    13    13    14    1
    14    14    15    1
    15    15    16    1
    16    16    17    1
    17    17    18    1
    18    17    19    1
    19    19    20    1
    20    20    21    1
    21    21    22    1
    22    22    23    1
    23    22    24    1
    24    10     2    1
    25    19    13    1
    26    14     2    1
    27    22    17    1
    28     8     4    1
    29    24    25    1
@<TRIPOS>MOLECULE
*****
 25 29 0 0 0
SMALL
GASTEIGER

@<TRIPOS>ATOM
      1 C         -15.2540   -8.5171   18.0783 C.3     1  UNL1        0.0003
      2 C         -16.3017   -7.6130   18.6569 C.3     1  UNL1        0.0039
      3 C         -16.6785   -8.9790   18.1649 C.3     1  UNL1        0.0256
      4 C         -18.1031   -9.4407   18.2515 C.2     1  UNL1        0.0003
      5 C         -18.7684  -10.7238   17.8501 C.2     1  UNL1        0.1151
      6 N         -20.2273  -10.6125   18.1806 N.2     1  UNL1       -0.1514
      7 N         -20.4636   -9.2607   18.7863 N.2     1  UNL1       -0.1723
      8 C         -19.1507   -8.5365   18.8301 C.3     1  UNL1        0.1449
      9 C         -18.7738   -7.1705   19.3221 C.3     1  UNL1        0.0305
     10 C         -17.3493   -6.7088   19.2355 C.3     1  UNL1        0.0026
     11 C         -16.9725   -5.3428   19.7275 C.3     1  UNL1        0.0001
     12 C         -15.5480   -4.8810   19.6409 C.3     1  UNL1        0.0000
     13 C         -14.5002   -5.7852   19.0623 C.3     1  UNL1        0.0001
     14 C         -14.8771   -7.1512   18.5703 C.3     1  UNL1        0.0003
     15 C         -13.8295   -8.0554   17.9916 C.3     1  UNL1        0.0001
     16 C         -12.4050   -7.5937   17.9050 C.3     1  UNL1        0.0022
     17 C         -12.0281   -6.2277   18.3970 C.3     1  UNL1        0.0226
     18 C         -10.9988   -7.1502   17.8144 C.3     1  UNL1        0.0023
     19 C         -13.0757   -5.3235   18.9756 C.3     1  UNL1        0.0022
     20 C         -12.4104   -4.0405   19.3771 C.3     1  UNL1        0.0025
     21 C         -10.9515   -4.1517   19.0465 C.3     1  UNL1        0.0269
     22 C         -10.7152   -5.5035   18.4408 C.3     1  UNL1        0.0883
     23 C          -9.2907   -5.0417   18.3542 C.3     1  UNL1        0.0293
     24 O         -10.0174   -6.6767   17.8191 O.3     1  UNL1       -0.3867
     25 H          -9.0739   -6.4755   17.7184 H       1  UNL1        0.2102
@<TRIPOS>BOND
     1     2     1    1
     2     2     3    1
     3     3     4    1
     4     4     5    2
     5     5     6    1
     6     6     7    2
     7     7     8    1
     8     8     9    1
     9    10     9    1
    10    10    11    1
    11    11    12    1
    12    13    12    1
    13    13    14    1
    14    14    15    1
    15    15    16    1
    16    16    17    1
    17    17    18    1
    18    17    19    1
    19    19    20    1
    20    20    21    1
    21    21    22    1
    22    22    23    1
    23    22    24    1
    24    10     2    1
    25    19    13    1
    26    14     2    1
    27    22    17    1
    28     8     4    1
    29    24    25    1
@<TRIPOS>MOLECULE
*****
 25 29 0 0 0
SMALL
GASTEIGER

@<TRIPOS>ATOM
      1 C         -13.5532   -6.9397   17.9914 C.3     1  UNL1        0.0003
      2 C         -14.8624   -6.6755   18.6743 C.3     1  UNL1        0.0039
      3 C         -14.5021   -8.0707   18.2575 C.3     1  UNL1        0.0256
      4 C         -15.4510   -9.2015   18.5236 C.2     1  UNL1        0.0003
      5 C         -15.3696  -10.6702   18.2298 C.2     1  UNL1        0.1151
      6 N         -16.6285  -11.3135   18.7311 N.2     1  UNL1       -0.1514
      7 N         -17.4879  -10.2425   19.3346 N.2     1  UNL1       -0.1723
      8 C         -16.7602   -8.9371   19.2064 C.3     1  UNL1        0.1449
      9 C         -17.1204   -7.5420   19.6231 C.3     1  UNL1        0.0305
     10 C         -16.1715   -6.4111   19.3570 C.3     1  UNL1        0.0026
     11 C         -16.5318   -5.0159   19.7738 C.3     1  UNL1        0.0001
     12 C         -15.5829   -3.8851   19.5077 C.3     1  UNL1        0.0000
     13 C         -14.2737   -4.1494   18.8249 C.3     1  UNL1        0.0001
     14 C         -13.9135   -5.5446   18.4082 C.3     1  UNL1        0.0003
     15 C         -12.6043   -5.8089   17.7254 C.3     1  UNL1        0.0001
     16 C         -11.6554   -4.6781   17.4593 C.3     1  UNL1        0.0022
     17 C         -12.0157   -3.2829   17.8760 C.3     1  UNL1        0.0226
     18 C         -10.7127   -3.5727   17.1918 C.3     1  UNL1        0.0023
     19 C         -13.3248   -3.0186   18.5588 C.3     1  UNL1        0.0022
     20 C         -13.4062   -1.5499   18.8526 C.3     1  UNL1        0.0025
     21 C         -12.1473   -0.9065   18.3513 C.3     1  UNL1        0.0269
     22 C         -11.2879   -1.9776   17.7478 C.3     1  UNL1        0.0883
     23 C         -10.3391   -0.8467   17.4817 C.3     1  UNL1        0.0293
     24 O         -10.1354   -2.6567   17.0694 O.3     1  UNL1       -0.3867
     25 H          -9.4554   -1.9999   16.8522 H       1  UNL1        0.2102
@<TRIPOS>BOND
     1     2     1    1
     2     2     3    1
     3     3     4    1
     4     4     5    2
     5     5     6    1
     6     6     7    2
     7     7     8    1
     8     8     9    1
     9    10     9    1
    10    10    11    1
    11    11    12    1
    12    13    12    1
    13    13    14    1
    14    14    15    1
    15    15    16    1
    16    16    17    1
    17    17    18    1
    18    17    19    1
    19    19    20    1
    20    20    21    1
    21    21    22    1
    22    22    23    1
    23    22    24    1
    24    10     2    1
    25    19    13    1
    26    14     2    1
    27    22    17    1
    28     8     4    1
    29    24    25    1
