@<TRIPOS>MOLECULE
*****
 30 33 0 0 0
SMALL
GASTEIGER

@<TRIPOS>ATOM
      1 C          -2.9941    3.4727   20.6141 C.ar    1  UNL1        0.2271
      2 C          -2.5852    4.8741   20.2694 C.ar    1  UNL1        0.0896
      3 C          -1.1760    5.1608   19.8428 C.ar    1  UNL1        0.1735
      4 F          -0.7671    6.5622   19.4981 F       1  UNL1       -0.2016
      5 C          -0.1757    4.0460   19.7609 C.ar    1  UNL1        0.1851
      6 F           1.2336    4.3327   19.3343 F       1  UNL1       -0.2002
      7 C          -0.5846    2.6446   20.1056 C.ar    1  UNL1        0.1140
      8 N          -1.9937    2.3579   20.5322 N.ar    1  UNL1       -0.2093
      9 C           0.4158    1.5298   20.0237 C.ar    1  UNL1        0.0199
     10 C           0.6245    0.6215   21.1990 C.ar    1  UNL1        0.0047
     11 C           1.6248   -0.4932   21.1170 C.ar    1  UNL1        0.0366
     12 C           2.4164   -0.6996   19.8598 C.ar    1  UNL1        0.1343
     13 C           2.2077    0.2087   18.6844 C.ar    1  UNL1        0.0119
     14 C           1.2074    1.3234   18.7664 C.ar    1  UNL1        0.0003
     15 C           2.9994    0.0023   17.4272 C.3     1  UNL1        0.0331
     16 C           3.9997   -1.1124   17.3452 C.3     1  UNL1        0.0483
     17 C           4.2084   -2.0207   18.5206 C.3     1  UNL1        0.1666
     18 O           3.4168   -1.8143   19.7778 O.3     1  UNL1       -0.4795
     19 C           5.2087   -3.1354   18.4386 C.3     1  UNL1        0.0494
     20 C           4.7799   -4.5488   18.7005 C.3     1  UNL1        0.0454
     21 C           4.3602   -4.9618   20.0801 C.2     1  UNL1        0.0505
     22 O           3.3054   -6.0130   20.2600 O.co2   1  UNL1       -0.5492
     23 O           4.9954   -4.3236   21.2797 O.co2   1  UNL1       -0.5492
     24 O          -4.4033    3.1860   21.0407 O.3     1  UNL1       -0.4638
     25 C          -7.1788    4.5232   19.1375 C.3     1  UNL1        0.1225
     26 C          -6.1481    3.4586   18.9045 C.3     1  UNL1        0.0733
     27 C          -5.5529    3.7399   20.2524 C.3     1  UNL1        0.1724
     28 C          -6.5837    4.8045   20.4853 C.3     1  UNL1        0.0733
     29 C          -8.2036    6.4129   17.6786 C.3     1  UNL1        0.1740
     30 O          -8.3285    5.0770   18.3492 O.3     1  UNL1       -0.3533
@<TRIPOS>UNITY_ATOM_ATTR
22 1
charge -1
@<TRIPOS>BOND
     1    29    30    1
     2    25    30    1
     3    25    26    1
     4    26    27    1
     5    27    24    1
     6    24     1    1
     7     1     2   ar
     8     2     3   ar
     9     3     4    1
    10     3     5   ar
    11     5     6    1
    12     5     7   ar
    13     7     9    1
    14     9    10   ar
    15    10    11   ar
    16    11    12   ar
    17    12    13   ar
    18    13    14   ar
    19    13    15    1
    20    15    16    1
    21    16    17    1
    22    17    19    1
    23    19    20    1
    24    20    21    1
    25    21    22   ar
    26    21    23   ar
    27    17    18    1
    28     7     8   ar
    29    27    28    1
    30    28    25    1
    31     8     1   ar
    32    14     9   ar
    33    18    12    1
@<TRIPOS>MOLECULE
*****
 30 33 0 0 0
SMALL
GASTEIGER

@<TRIPOS>ATOM
      1 C           8.8165   -5.5536   28.4410 C.ar    1  UNL1        0.2271
      2 C           8.7506   -7.0443   28.5947 C.ar    1  UNL1        0.0896
      3 C           8.3668   -7.9026   27.4259 C.ar    1  UNL1        0.1735
      4 F           8.3010   -9.3932   27.5796 F       1  UNL1       -0.2016
      5 C           8.0488   -7.2702   26.1034 C.ar    1  UNL1        0.1851
      6 F           7.6650   -8.1285   24.9346 F       1  UNL1       -0.2002
      7 C           8.1147   -5.7796   25.9497 C.ar    1  UNL1        0.1140
      8 N           8.4985   -4.9213   27.1184 N.ar    1  UNL1       -0.2093
      9 C           7.7967   -5.1472   24.6271 C.ar    1  UNL1        0.0199
     10 C           8.8148   -5.1597   23.5257 C.ar    1  UNL1        0.0047
     11 C           8.4968   -4.5274   22.2032 C.ar    1  UNL1        0.0366
     12 C           7.1606   -3.8826   21.9822 C.ar    1  UNL1        0.1343
     13 C           6.1425   -3.8701   23.0836 C.ar    1  UNL1        0.0119
     14 C           6.4605   -4.5024   24.4061 C.ar    1  UNL1        0.0003
     15 C           4.8063   -3.2253   22.8626 C.3     1  UNL1        0.0331
     16 C           4.4883   -2.5929   21.5401 C.3     1  UNL1        0.0483
     17 C           5.5064   -2.6054   20.4386 C.3     1  UNL1        0.1666
     18 O           6.8426   -3.2502   20.6596 O.3     1  UNL1       -0.4795
     19 C           5.1884   -1.9731   19.1161 C.3     1  UNL1        0.0494
     20 C           3.7766   -1.5841   18.7909 C.3     1  UNL1        0.0454
     21 C           3.4996   -0.6522   17.6487 C.2     1  UNL1        0.0505
     22 O           3.8956   -1.0367   16.2539 O.co2   1  UNL1       -0.5492
     23 O           2.8267    0.6644   17.9013 O.co2   1  UNL1       -0.5492
     24 O           9.2003   -4.6953   29.6097 O.3     1  UNL1       -0.4638
     25 C           6.6696   -3.5878   31.9513 C.3     1  UNL1        0.1225
     26 C           6.8346   -4.7766   31.0516 C.3     1  UNL1        0.0733
     27 C           8.1520   -4.2366   30.5796 C.3     1  UNL1        0.1724
     28 C           7.9870   -3.0477   31.4793 C.3     1  UNL1        0.0733
     29 C           4.5635   -2.1613   32.4801 C.3     1  UNL1        0.1740
     30 O           5.6213   -3.1290   32.9212 O.3     1  UNL1       -0.3533
@<TRIPOS>UNITY_ATOM_ATTR
22 1
charge -1
@<TRIPOS>BOND
     1    29    30    1
     2    25    30    1
     3    25    26    1
     4    26    27    1
     5    27    24    1
     6    24     1    1
     7     1     2   ar
     8     2     3   ar
     9     3     4    1
    10     3     5   ar
    11     5     6    1
    12     5     7   ar
    13     7     9    1
    14     9    10   ar
    15    10    11   ar
    16    11    12   ar
    17    12    13   ar
    18    13    14   ar
    19    13    15    1
    20    15    16    1
    21    16    17    1
    22    17    19    1
    23    19    20    1
    24    20    21    1
    25    21    22   ar
    26    21    23   ar
    27    17    18    1
    28     7     8   ar
    29    27    28    1
    30    28    25    1
    31     8     1   ar
    32    14     9   ar
    33    18    12    1
@<TRIPOS>MOLECULE
*****
 30 33 0 0 0
SMALL
GASTEIGER

@<TRIPOS>ATOM
      1 C           5.0826   -1.8699   18.2493 C.ar    1  UNL1        0.2271
      2 C           5.1210   -3.3561   18.0498 C.ar    1  UNL1        0.0896
      3 C           4.7623   -4.2741   19.1806 C.ar    1  UNL1        0.1735
      4 F           4.8007   -5.7603   18.9812 F       1  UNL1       -0.2016
      5 C           4.3652   -3.7059   20.5108 C.ar    1  UNL1        0.1851
      6 F           4.0065   -4.6239   21.6416 F       1  UNL1       -0.2002
      7 C           4.3268   -2.2197   20.7103 C.ar    1  UNL1        0.1140
      8 N           4.6855   -1.3017   19.5795 N.ar    1  UNL1       -0.2093
      9 C           3.9297   -1.6516   22.0406 C.ar    1  UNL1        0.0199
     10 C           4.6449   -2.0862   23.2854 C.ar    1  UNL1        0.0047
     11 C           4.2478   -1.5180   24.6156 C.ar    1  UNL1        0.0366
     12 C           3.1355   -0.5152   24.7009 C.ar    1  UNL1        0.1343
     13 C           2.4204   -0.0806   23.4561 C.ar    1  UNL1        0.0119
     14 C           2.8175   -0.6488   22.1259 C.ar    1  UNL1        0.0003
     15 C           1.3081    0.9222   23.5415 C.3     1  UNL1        0.0331
     16 C           0.9110    1.4904   24.8716 C.3     1  UNL1        0.0483
     17 C           1.6261    1.0558   26.1166 C.3     1  UNL1        0.1666
     18 O           2.7384    0.0530   26.0312 O.3     1  UNL1       -0.4795
     19 C           1.2290    1.6239   27.4467 C.3     1  UNL1        0.0494
     20 C          -0.1426    1.3622   27.9948 C.3     1  UNL1        0.0454
     21 C          -0.3299    0.3722   29.1060 C.2     1  UNL1        0.0505
     22 O           0.8562   -0.3448   29.6795 O.co2   1  UNL1       -0.5492
     23 O          -1.7033    0.0993   29.6437 O.co2   1  UNL1       -0.5492
     24 O           5.4413   -0.9519   17.1185 O.3     1  UNL1       -0.4638
     25 C           8.1989    1.3681   17.4748 C.3     1  UNL1        0.1225
     26 C           7.0611    1.2132   16.5098 C.3     1  UNL1        0.0733
     27 C           6.5835    0.0091   17.2661 C.3     1  UNL1        0.1724
     28 C           7.7214    0.1640   18.2312 C.3     1  UNL1        0.0733
     29 C           9.1215    3.6602   18.2778 C.3     1  UNL1        0.1740
     30 O           9.3412    2.3290   17.6224 O.3     1  UNL1       -0.3533
@<TRIPOS>UNITY_ATOM_ATTR
22 1
charge -1
@<TRIPOS>BOND
     1    29    30    1
     2    25    30    1
     3    25    26    1
     4    26    27    1
     5    27    24    1
     6    24     1    1
     7     1     2   ar
     8     2     3   ar
     9     3     4    1
    10     3     5   ar
    11     5     6    1
    12     5     7   ar
    13     7     9    1
    14     9    10   ar
    15    10    11   ar
    16    11    12   ar
    17    12    13   ar
    18    13    14   ar
    19    13    15    1
    20    15    16    1
    21    16    17    1
    22    17    19    1
    23    19    20    1
    24    20    21    1
    25    21    22   ar
    26    21    23   ar
    27    17    18    1
    28     7     8   ar
    29    27    28    1
    30    28    25    1
    31     8     1   ar
    32    14     9   ar
    33    18    12    1
@<TRIPOS>MOLECULE
*****
 30 33 0 0 0
SMALL
GASTEIGER

@<TRIPOS>ATOM
      1 C           5.4586   -3.9335   21.2859 C.ar    1  UNL1        0.2271
      2 C           6.7658   -3.8906   20.5513 C.ar    1  UNL1        0.0896
      3 C           8.0565   -3.9558   21.3128 C.ar    1  UNL1        0.1735
      4 F           9.3636   -3.9129   20.5782 F       1  UNL1       -0.2016
      5 C           8.0401   -4.0640   22.8087 C.ar    1  UNL1        0.1851
      6 F           9.3309   -4.1293   23.5702 F       1  UNL1       -0.2002
      7 C           6.7330   -4.1070   23.5433 C.ar    1  UNL1        0.1140
      8 N           5.4423   -4.0417   22.7819 N.ar    1  UNL1       -0.2093
      9 C           6.7166   -4.2152   25.0394 C.ar    1  UNL1        0.0199
     10 C           6.9289   -5.5463   25.6974 C.ar    1  UNL1        0.0047
     11 C           6.9126   -5.6544   27.1934 C.ar    1  UNL1        0.0366
     12 C           6.6839   -4.4314   28.0313 C.ar    1  UNL1        0.1343
     13 C           6.4716   -3.1004   27.3733 C.ar    1  UNL1        0.0119
     14 C           6.4880   -2.9922   25.8773 C.ar    1  UNL1        0.0003
     15 C           6.2430   -1.8774   28.2112 C.3     1  UNL1        0.0331
     16 C           6.2266   -1.9855   29.7072 C.3     1  UNL1        0.0483
     17 C           6.4389   -3.3167   30.3653 C.3     1  UNL1        0.1666
     18 O           6.6676   -4.5396   29.5274 O.3     1  UNL1       -0.4795
     19 C           6.4225   -3.4248   31.8613 C.3     1  UNL1        0.0494
     20 C           5.7838   -2.3456   32.6843 C.3     1  UNL1        0.0454
     21 C           4.2918   -2.2983   32.8313 C.2     1  UNL1        0.0505
     22 O           3.6165   -3.1141   33.8936 O.co2   1  UNL1       -0.5492
     23 O           3.4750   -1.4353   31.9158 O.co2   1  UNL1       -0.5492
     24 O           4.1679   -3.8682   20.5245 O.3     1  UNL1       -0.4638
     25 C           3.3498   -0.9134   18.5975 C.3     1  UNL1        0.1225
     26 C           4.2551   -2.0926   18.3980 C.3     1  UNL1        0.0733
     27 C           3.8291   -2.6443   19.7263 C.3     1  UNL1        0.1724
     28 C           2.9238   -1.4650   19.9257 C.3     1  UNL1        0.0733
     29 C           3.0850    1.6662   18.4371 C.3     1  UNL1        0.1740
     30 O           3.0109    0.3106   17.7993 O.3     1  UNL1       -0.3533
@<TRIPOS>UNITY_ATOM_ATTR
22 1
charge -1
@<TRIPOS>BOND
     1    29    30    1
     2    25    30    1
     3    25    26    1
     4    26    27    1
     5    27    24    1
     6    24     1    1
     7     1     2   ar
     8     2     3   ar
     9     3     4    1
    10     3     5   ar
    11     5     6    1
    12     5     7   ar
    13     7     9    1
    14     9    10   ar
    15    10    11   ar
    16    11    12   ar
    17    12    13   ar
    18    13    14   ar
    19    13    15    1
    20    15    16    1
    21    16    17    1
    22    17    19    1
    23    19    20    1
    24    20    21    1
    25    21    22   ar
    26    21    23   ar
    27    17    18    1
    28     7     8   ar
    29    27    28    1
    30    28    25    1
    31     8     1   ar
    32    14     9   ar
    33    18    12    1
@<TRIPOS>MOLECULE
*****
 30 33 0 0 0
SMALL
GASTEIGER

@<TRIPOS>ATOM
      1 C         -15.8732    3.6551   19.4848 C.ar    1  UNL1        0.2271
      2 C         -17.1683    3.4408   18.7591 C.ar    1  UNL1        0.0896
      3 C         -17.3634    2.2131   17.9196 C.ar    1  UNL1        0.1735
      4 F         -18.6586    1.9988   17.1938 F       1  UNL1       -0.2016
      5 C         -16.2634    1.1997   17.8058 C.ar    1  UNL1        0.1851
      6 F         -16.4585   -0.0280   16.9663 F       1  UNL1       -0.2002
      7 C         -14.9683    1.4140   18.5316 C.ar    1  UNL1        0.1140
      8 N         -14.7731    2.6416   19.3710 N.ar    1  UNL1       -0.2093
      9 C         -13.8682    0.4005   18.4178 C.ar    1  UNL1        0.0199
     10 C         -12.5881    0.7580   17.7224 C.ar    1  UNL1        0.0047
     11 C         -11.4882   -0.2555   17.6087 C.ar    1  UNL1        0.0366
     12 C         -11.6683   -1.6263   18.1903 C.ar    1  UNL1        0.1343
     13 C         -12.9484   -1.9838   18.8856 C.ar    1  UNL1        0.0119
     14 C         -14.0483   -0.9703   18.9994 C.ar    1  UNL1        0.0003
     15 C         -13.1285   -3.3546   19.4672 C.3     1  UNL1        0.0331
     16 C         -12.0285   -4.3681   19.3535 C.3     1  UNL1        0.0483
     17 C         -10.7484   -4.0107   18.6581 C.3     1  UNL1        0.1666
     18 O         -10.5682   -2.6398   18.0765 O.3     1  UNL1       -0.4795
     19 C          -9.6484   -5.0241   18.5443 C.3     1  UNL1        0.0494
     20 C          -9.8864   -6.4409   18.9758 C.3     1  UNL1        0.0454
     21 C         -10.3873   -7.4519   17.9874 C.2     1  UNL1        0.0505
     22 O          -9.6524   -8.7461   17.8006 O.co2   1  UNL1       -0.5492
     23 O         -11.6230   -7.1685   17.1858 O.co2   1  UNL1       -0.5492
     24 O         -15.6780    4.8827   20.3243 O.3     1  UNL1       -0.4638
     25 C         -15.0117    4.5649   23.8695 C.3     1  UNL1        0.1225
     26 C         -14.2736    5.1447   22.6994 C.3     1  UNL1        0.0733
     27 C         -15.4020    4.7511   21.7928 C.3     1  UNL1        0.1724
     28 C         -16.1400    4.1713   22.9630 C.3     1  UNL1        0.0733
     29 C         -14.3285    5.6367   26.1355 C.3     1  UNL1        0.1740
     30 O         -14.7356    4.4332   25.3380 O.3     1  UNL1       -0.3533
@<TRIPOS>UNITY_ATOM_ATTR
22 1
charge -1
@<TRIPOS>BOND
     1    29    30    1
     2    25    30    1
     3    25    26    1
     4    26    27    1
     5    27    24    1
     6    24     1    1
     7     1     2   ar
     8     2     3   ar
     9     3     4    1
    10     3     5   ar
    11     5     6    1
    12     5     7   ar
    13     7     9    1
    14     9    10   ar
    15    10    11   ar
    16    11    12   ar
    17    12    13   ar
    18    13    14   ar
    19    13    15    1
    20    15    16    1
    21    16    17    1
    22    17    19    1
    23    19    20    1
    24    20    21    1
    25    21    22   ar
    26    21    23   ar
    27    17    18    1
    28     7     8   ar
    29    27    28    1
    30    28    25    1
    31     8     1   ar
    32    14     9   ar
    33    18    12    1
@<TRIPOS>MOLECULE
*****
 30 33 0 0 0
SMALL
GASTEIGER

@<TRIPOS>ATOM
      1 C          -3.1822    3.4752   20.8373 C.ar    1  UNL1        0.2271
      2 C          -2.9889    4.8945   20.3922 C.ar    1  UNL1        0.0896
      3 C          -1.7006    5.3087   19.7449 C.ar    1  UNL1        0.1735
      4 F          -1.5073    6.7280   19.2997 F       1  UNL1       -0.2016
      5 C          -0.6057    4.3036   19.5427 C.ar    1  UNL1        0.1851
      6 F           0.6825    4.7177   18.8954 F       1  UNL1       -0.2002
      7 C          -0.7990    2.8842   19.9878 C.ar    1  UNL1        0.1140
      8 N          -2.0872    2.4700   20.6351 N.ar    1  UNL1       -0.2093
      9 C           0.2959    1.8791   19.7856 C.ar    1  UNL1        0.0199
     10 C           0.7714    1.5565   18.4001 C.ar    1  UNL1        0.0047
     11 C           1.8663    0.5514   18.1980 C.ar    1  UNL1        0.0366
     12 C           2.4857   -0.1312   19.3814 C.ar    1  UNL1        0.1343
     13 C           2.0102    0.1914   20.7669 C.ar    1  UNL1        0.0119
     14 C           0.9153    1.1965   20.9691 C.ar    1  UNL1        0.0003
     15 C           2.6296   -0.4911   21.9503 C.3     1  UNL1        0.0331
     16 C           3.7245   -1.4963   21.7482 C.3     1  UNL1        0.0483
     17 C           4.2000   -1.8189   20.3626 C.3     1  UNL1        0.1666
     18 O           3.5807   -1.1363   19.1792 O.3     1  UNL1       -0.4795
     19 C           5.2949   -2.8240   20.1605 C.3     1  UNL1        0.0494
     20 C           5.8471   -3.0656   18.7868 C.3     1  UNL1        0.0454
     21 C           6.9555   -2.2022   18.2615 C.2     1  UNL1        0.0505
     22 O           8.3536   -2.3822   18.7741 O.co2   1  UNL1       -0.5492
     23 O           6.6657   -1.1588   17.2236 O.co2   1  UNL1       -0.5492
     24 O          -4.4703    3.0610   21.4846 O.3     1  UNL1       -0.4638
     25 C          -5.1446    3.9744   24.9233 C.3     1  UNL1        0.1225
     26 C          -5.8472    4.1798   23.6141 C.3     1  UNL1        0.0733
     27 C          -4.7496    3.4394   22.9089 C.3     1  UNL1        0.1724
     28 C          -4.0470    3.2340   24.2183 C.3     1  UNL1        0.0733
     29 C          -5.6763    5.7870   26.7070 C.3     1  UNL1        0.1740
     30 O          -5.4238    4.3528   26.3477 O.3     1  UNL1       -0.3533
@<TRIPOS>UNITY_ATOM_ATTR
22 1
charge -1
@<TRIPOS>BOND
     1    29    30    1
     2    25    30    1
     3    25    26    1
     4    26    27    1
     5    27    24    1
     6    24     1    1
     7     1     2   ar
     8     2     3   ar
     9     3     4    1
    10     3     5   ar
    11     5     6    1
    12     5     7   ar
    13     7     9    1
    14     9    10   ar
    15    10    11   ar
    16    11    12   ar
    17    12    13   ar
    18    13    14   ar
    19    13    15    1
    20    15    16    1
    21    16    17    1
    22    17    19    1
    23    19    20    1
    24    20    21    1
    25    21    22   ar
    26    21    23   ar
    27    17    18    1
    28     7     8   ar
    29    27    28    1
    30    28    25    1
    31     8     1   ar
    32    14     9   ar
    33    18    12    1
@<TRIPOS>MOLECULE
*****
 30 33 0 0 0
SMALL
GASTEIGER

@<TRIPOS>ATOM
      1 C          -2.8054    3.6389   20.5247 C.ar    1  UNL1        0.2271
      2 C          -2.3529    5.0136   20.1304 C.ar    1  UNL1        0.0896
      3 C          -0.9396    5.2376   19.6802 C.ar    1  UNL1        0.1735
      4 F          -0.4871    6.6123   19.2859 F       1  UNL1       -0.2016
      5 C           0.0210    4.0870   19.6244 C.ar    1  UNL1        0.1851
      6 F           1.4343    4.3110   19.1743 F       1  UNL1       -0.2002
      7 C          -0.4315    2.7123   20.0188 C.ar    1  UNL1        0.1140
      8 N          -1.8447    2.4883   20.4689 N.ar    1  UNL1       -0.2093
      9 C           0.5293    1.5617   19.9630 C.ar    1  UNL1        0.0199
     10 C           0.6651    0.6403   21.1388 C.ar    1  UNL1        0.0047
     11 C           1.6258   -0.5103   21.0829 C.ar    1  UNL1        0.0366
     12 C           2.4507   -0.7395   19.8513 C.ar    1  UNL1        0.1343
     13 C           2.3149    0.1819   18.6755 C.ar    1  UNL1        0.0119
     14 C           1.3542    1.3325   18.7313 C.ar    1  UNL1        0.0003
     15 C           3.1398   -0.0473   17.4438 C.3     1  UNL1        0.0331
     16 C           4.1005   -1.1979   17.3879 C.3     1  UNL1        0.0483
     17 C           4.2364   -2.1193   18.5638 C.3     1  UNL1        0.1666
     18 O           3.4114   -1.8901   19.7954 O.3     1  UNL1       -0.4795
     19 C           5.1971   -3.2699   18.5079 C.3     1  UNL1        0.0494
     20 C           5.3550   -4.1734   19.6949 C.3     1  UNL1        0.0454
     21 C           6.4059   -3.8820   20.7247 C.2     1  UNL1        0.0505
     22 O           6.2985   -2.6538   21.5792 O.co2   1  UNL1       -0.5492
     23 O           7.5642   -4.8187   20.9001 O.co2   1  UNL1       -0.5492
     24 O          -4.2186    3.4149   20.9748 O.3     1  UNL1       -0.4638
     25 C          -5.1080    3.8904   24.4529 C.3     1  UNL1        0.1225
     26 C          -4.9617    4.7916   23.2628 C.3     1  UNL1        0.0733
     27 C          -4.5870    3.6118   22.4155 C.3     1  UNL1        0.1724
     28 C          -4.7334    2.7106   23.6057 C.3     1  UNL1        0.0733
     29 C          -4.4224    4.4622   26.8927 C.3     1  UNL1        0.1740
     30 O          -5.4765    4.0873   25.8935 O.3     1  UNL1       -0.3533
@<TRIPOS>UNITY_ATOM_ATTR
22 1
charge -1
@<TRIPOS>BOND
     1    29    30    1
     2    25    30    1
     3    25    26    1
     4    26    27    1
     5    27    24    1
     6    24     1    1
     7     1     2   ar
     8     2     3   ar
     9     3     4    1
    10     3     5   ar
    11     5     6    1
    12     5     7   ar
    13     7     9    1
    14     9    10   ar
    15    10    11   ar
    16    11    12   ar
    17    12    13   ar
    18    13    14   ar
    19    13    15    1
    20    15    16    1
    21    16    17    1
    22    17    19    1
    23    19    20    1
    24    20    21    1
    25    21    22   ar
    26    21    23   ar
    27    17    18    1
    28     7     8   ar
    29    27    28    1
    30    28    25    1
    31     8     1   ar
    32    14     9   ar
    33    18    12    1
@<TRIPOS>MOLECULE
*****
 30 33 0 0 0
SMALL
GASTEIGER

@<TRIPOS>ATOM
      1 C           2.6464   -0.5406   29.5562 C.ar    1  UNL1        0.2271
      2 C           3.6891   -0.0866   30.5343 C.ar    1  UNL1        0.0896
      3 C           5.1443   -0.2274   30.1985 C.ar    1  UNL1        0.1735
      4 F           6.1870    0.2266   31.1766 F       1  UNL1       -0.2016
      5 C           5.5568   -0.8222   28.8847 C.ar    1  UNL1        0.1851
      6 F           7.0120   -0.9630   28.5490 F       1  UNL1       -0.2002
      7 C           4.5141   -1.2762   27.9066 C.ar    1  UNL1        0.1140
      8 N           3.0590   -1.1354   28.2423 N.ar    1  UNL1       -0.2093
      9 C           4.9266   -1.8710   26.5928 C.ar    1  UNL1        0.0199
     10 C           6.0905   -2.8151   26.5293 C.ar    1  UNL1        0.0047
     11 C           6.5029   -3.4098   25.2155 C.ar    1  UNL1        0.0366
     12 C           5.7515   -3.0605   23.9652 C.ar    1  UNL1        0.1343
     13 C           4.5876   -2.1164   24.0286 C.ar    1  UNL1        0.0119
     14 C           4.1752   -1.5217   25.3424 C.ar    1  UNL1        0.0003
     15 C           3.8362   -1.7671   22.7783 C.3     1  UNL1        0.0331
     16 C           4.2487   -2.3619   21.4645 C.3     1  UNL1        0.0483
     17 C           5.4126   -3.3060   21.4010 C.3     1  UNL1        0.1666
     18 O           6.1640   -3.6553   22.6513 O.3     1  UNL1       -0.4795
     19 C           5.8250   -3.9008   20.0872 C.3     1  UNL1        0.0494
     20 C           5.0143   -3.6311   18.8543 C.3     1  UNL1        0.0454
     21 C           5.3574   -2.4688   17.9704 C.2     1  UNL1        0.0505
     22 O           6.7482   -2.3244   17.4274 O.co2   1  UNL1       -0.5492
     23 O           4.3097   -1.4509   17.6295 O.co2   1  UNL1       -0.5492
     24 O           1.1913   -0.3998   29.8918 O.3     1  UNL1       -0.4638
     25 C          -0.9640    1.6172   27.7942 C.3     1  UNL1        0.1225
     26 C           0.4825    1.6682   28.1880 C.3     1  UNL1        0.0733
     27 C           0.2986    0.4357   29.0230 C.3     1  UNL1        0.1724
     28 C          -1.1480    0.3848   28.6292 C.3     1  UNL1        0.0733
     29 C          -1.4225    2.8198   25.5373 C.3     1  UNL1        0.1740
     30 O          -1.8567    2.4528   26.9254 O.3     1  UNL1       -0.3533
@<TRIPOS>UNITY_ATOM_ATTR
22 1
charge -1
@<TRIPOS>BOND
     1    29    30    1
     2    25    30    1
     3    25    26    1
     4    26    27    1
     5    27    24    1
     6    24     1    1
     7     1     2   ar
     8     2     3   ar
     9     3     4    1
    10     3     5   ar
    11     5     6    1
    12     5     7   ar
    13     7     9    1
    14     9    10   ar
    15    10    11   ar
    16    11    12   ar
    17    12    13   ar
    18    13    14   ar
    19    13    15    1
    20    15    16    1
    21    16    17    1
    22    17    19    1
    23    19    20    1
    24    20    21    1
    25    21    22   ar
    26    21    23   ar
    27    17    18    1
    28     7     8   ar
    29    27    28    1
    30    28    25    1
    31     8     1   ar
    32    14     9   ar
    33    18    12    1
@<TRIPOS>MOLECULE
*****
 30 33 0 0 0
SMALL
GASTEIGER

@<TRIPOS>ATOM
      1 C           6.1721   -2.3901   18.4910 C.ar    1  UNL1        0.2271
      2 C           4.8005   -2.8960   18.1551 C.ar    1  UNL1        0.0896
      3 C           4.0469   -3.7341   19.1450 C.ar    1  UNL1        0.1735
      4 F           2.6753   -4.2400   18.8091 F       1  UNL1       -0.2016
      5 C           4.6650   -4.0663   20.4707 C.ar    1  UNL1        0.1851
      6 F           3.9114   -4.9044   21.4606 F       1  UNL1       -0.2002
      7 C           6.0366   -3.5604   20.8067 C.ar    1  UNL1        0.1140
      8 N           6.7901   -2.7224   19.8168 N.ar    1  UNL1       -0.2093
      9 C           6.6546   -3.8926   22.1325 C.ar    1  UNL1        0.0199
     10 C           7.8754   -4.7621   22.1941 C.ar    1  UNL1        0.0047
     11 C           8.4933   -5.0943   23.5199 C.ar    1  UNL1        0.0366
     12 C           7.8906   -4.5570   24.7840 C.ar    1  UNL1        0.1343
     13 C           6.6699   -3.6876   24.7224 C.ar    1  UNL1        0.0119
     14 C           6.0519   -3.3554   23.3966 C.ar    1  UNL1        0.0003
     15 C           6.0671   -3.1503   25.9865 C.3     1  UNL1        0.0331
     16 C           6.6851   -3.4825   27.3123 C.3     1  UNL1        0.0483
     17 C           7.9059   -4.3520   27.3740 C.3     1  UNL1        0.1666
     18 O           8.5086   -4.8893   26.1098 O.3     1  UNL1       -0.4795
     19 C           8.5239   -4.6842   28.6997 C.3     1  UNL1        0.0494
     20 C           7.8814   -5.7045   29.5921 C.3     1  UNL1        0.0454
     21 C           7.0437   -5.2625   30.7551 C.2     1  UNL1        0.0505
     22 O           6.5197   -3.8581   30.8112 O.co2   1  UNL1       -0.5492
     23 O           6.7298   -6.2248   31.8621 O.co2   1  UNL1       -0.5492
     24 O           6.9256   -1.5521   17.5012 O.3     1  UNL1       -0.4638
     25 C           6.1255    1.9593   17.1212 C.3     1  UNL1        0.1225
     26 C           5.7669    0.8909   18.1111 C.3     1  UNL1        0.0733
     27 C           6.5942   -0.0976   17.3438 C.3     1  UNL1        0.1724
     28 C           6.9528    0.9709   16.3539 C.3     1  UNL1        0.0733
     29 C           6.7409    4.4583   17.4757 C.3     1  UNL1        0.1740
     30 O           5.7941    3.4137   16.9637 O.3     1  UNL1       -0.3533
@<TRIPOS>UNITY_ATOM_ATTR
22 1
charge -1
@<TRIPOS>BOND
     1    29    30    1
     2    25    30    1
     3    25    26    1
     4    26    27    1
     5    27    24    1
     6    24     1    1
     7     1     2   ar
     8     2     3   ar
     9     3     4    1
    10     3     5   ar
    11     5     6    1
    12     5     7   ar
    13     7     9    1
    14     9    10   ar
    15    10    11   ar
    16    11    12   ar
    17    12    13   ar
    18    13    14   ar
    19    13    15    1
    20    15    16    1
    21    16    17    1
    22    17    19    1
    23    19    20    1
    24    20    21    1
    25    21    22   ar
    26    21    23   ar
    27    17    18    1
    28     7     8   ar
    29    27    28    1
    30    28    25    1
    31     8     1   ar
    32    14     9   ar
    33    18    12    1
