@<TRIPOS>MOLECULE
*****
 29 32 0 0 0
SMALL
GASTEIGER

@<TRIPOS>ATOM
      1 C           2.4571    1.1094   28.0982 C.1     1  UNL1       -0.0405
      2 C           2.2071    1.7585   29.4272 C.1     1  UNL1       -0.0583
      3 C           3.2072   -0.8382   24.1114 C.ar    1  UNL1        0.0192
      4 C           3.9366   -1.3196   25.3304 C.ar    1  UNL1        0.0037
      5 C           3.6866   -0.6705   26.6593 C.ar    1  UNL1        0.0276
      6 C           2.7071    0.4602   26.7693 C.ar    1  UNL1        0.1228
      7 N           1.9776    0.9417   25.5503 N.ar    1  UNL1       -0.2356
      8 C           2.2277    0.2925   24.2214 C.ar    1  UNL1        0.0995
      9 CL          4.2073   -3.4349   18.7957 Cl      1  UNL1       -0.0822
     10 C           3.9573   -2.7857   20.1246 C.ar    1  UNL1        0.0577
     11 C           4.5984   -3.3396   21.3624 C.ar    1  UNL1        0.0114
     12 C           4.3484   -2.6904   22.6913 C.ar    1  UNL1        0.0009
     13 C           3.4572   -1.4873   22.7825 C.ar    1  UNL1        0.0016
     14 C           2.8160   -0.9335   21.5448 C.ar    1  UNL1        0.0009
     15 C           3.0661   -1.5826   20.2158 C.ar    1  UNL1        0.0114
     16 C           1.9570    2.4077   30.7561 C.ar    1  UNL1        0.0422
     17 C           2.1360    1.6210   32.0206 C.ar    1  UNL1        0.0114
     18 C           1.8860    2.2702   33.3495 C.ar    1  UNL1        0.0375
     19 C           1.4570    3.7061   33.4139 C.ar    1  UNL1        0.1387
     20 C           1.2780    4.4927   32.1494 C.ar    1  UNL1        0.0375
     21 C           1.5280    3.8436   30.8205 C.ar    1  UNL1        0.0114
     22 O           1.2069    4.3552   34.7429 O.3     1  UNL1       -0.4740
     23 C           2.0452    3.9821   35.9294 C.3     1  UNL1        0.2226
     24 C           1.4543    4.0219   37.3076 C.3     1  UNL1        0.1200
     25 N           1.4083    2.7750   38.1402 N.3     1  UNL1       -0.2696
     26 C           0.3714    2.4413   39.1715 C.3     1  UNL1        0.0722
     27 C           0.7132    1.1030   39.7563 C.3     1  UNL1        0.0188
     28 C           1.9614    0.6096   39.0865 C.3     1  UNL1        0.0188
     29 C           2.3910    1.6430   38.0877 C.3     1  UNL1        0.0722
@<TRIPOS>BOND
     1     9    10    1
     2    10    11   ar
     3    11    12   ar
     4    12    13   ar
     5    13     3    1
     6     3     4   ar
     7     4     5   ar
     8     5     6   ar
     9     6     1    1
    10     1     2    3
    11     2    16    1
    12    16    17   ar
    13    17    18   ar
    14    18    19   ar
    15    19    22    1
    16    22    23    1
    17    23    24    1
    18    24    25    1
    19    25    26    1
    20    26    27    1
    21    27    28    1
    22    28    29    1
    23    19    20   ar
    24    20    21   ar
    25     6     7   ar
    26     7     8   ar
    27    13    14   ar
    28    14    15   ar
    29    15    10   ar
    30     8     3   ar
    31    21    16   ar
    32    29    25    1
@<TRIPOS>MOLECULE
*****
 29 32 0 0 0
SMALL
GASTEIGER

@<TRIPOS>ATOM
      1 C          -0.3013    2.4697   20.4605 C.1     1  UNL1       -0.0405
      2 C           0.9351    1.9692   19.7742 C.1     1  UNL1       -0.0583
      3 C          -4.0103    3.9713   22.5192 C.ar    1  UNL1        0.0192
      4 C          -2.6795    4.0724   23.2037 C.ar    1  UNL1        0.0037
      5 C          -1.4431    3.5719   22.5175 C.ar    1  UNL1        0.0276
      6 C          -1.5376    2.9703   21.1467 C.ar    1  UNL1        0.1228
      7 N          -2.8685    2.8692   20.4622 N.ar    1  UNL1       -0.2356
      8 C          -4.1048    3.3697   21.1484 C.ar    1  UNL1        0.0995
      9 CL         -8.9557    5.9734   25.2642 Cl      1  UNL1       -0.0822
     10 C          -7.7193    5.4729   24.5779 C.ar    1  UNL1        0.0577
     11 C          -6.3665    5.9047   25.0609 C.ar    1  UNL1        0.0114
     12 C          -5.1301    5.4042   24.3746 C.ar    1  UNL1        0.0009
     13 C          -5.2466    4.4718   23.2054 C.ar    1  UNL1        0.0016
     14 C          -6.5995    4.0400   22.7225 C.ar    1  UNL1        0.0009
     15 C          -7.8358    4.5405   23.4087 C.ar    1  UNL1        0.0114
     16 C           2.1714    1.4687   19.0880 C.ar    1  UNL1        0.0422
     17 C           3.4657    2.2116   19.2386 C.ar    1  UNL1        0.0114
     18 C           4.7021    1.7111   18.5524 C.ar    1  UNL1        0.0375
     19 C           4.6441    0.4676   17.7155 C.ar    1  UNL1        0.1387
     20 C           3.3498   -0.2753   17.5648 C.ar    1  UNL1        0.0375
     21 C           2.1134    0.2252   18.2511 C.ar    1  UNL1        0.0114
     22 O           5.8804   -0.0329   17.0292 O.3     1  UNL1       -0.4740
     23 C           7.0097   -0.5996   17.8376 C.3     1  UNL1        0.2226
     24 C           6.9748   -2.0350   18.2717 C.3     1  UNL1        0.1200
     25 N           5.7763   -2.5700   18.9981 N.3     1  UNL1       -0.2696
     26 C           5.2195   -2.0438   20.2877 C.3     1  UNL1        0.0722
     27 C           4.0234   -2.8736   20.6491 C.3     1  UNL1        0.0188
     28 C           3.8409   -3.9127   19.5827 C.3     1  UNL1        0.0188
     29 C           4.9243   -3.7250   18.5624 C.3     1  UNL1        0.0722
@<TRIPOS>BOND
     1     9    10    1
     2    10    11   ar
     3    11    12   ar
     4    12    13   ar
     5    13     3    1
     6     3     4   ar
     7     4     5   ar
     8     5     6   ar
     9     6     1    1
    10     1     2    3
    11     2    16    1
    12    16    17   ar
    13    17    18   ar
    14    18    19   ar
    15    19    22    1
    16    22    23    1
    17    23    24    1
    18    24    25    1
    19    25    26    1
    20    26    27    1
    21    27    28    1
    22    28    29    1
    23    19    20   ar
    24    20    21   ar
    25     6     7   ar
    26     7     8   ar
    27    13    14   ar
    28    14    15   ar
    29    15    10   ar
    30     8     3   ar
    31    21    16   ar
    32    29    25    1
@<TRIPOS>MOLECULE
*****
 29 32 0 0 0
SMALL
GASTEIGER

@<TRIPOS>ATOM
      1 C           3.9959   -1.4421   26.2474 C.1     1  UNL1       -0.0405
      2 C           3.9418   -1.6867   24.7685 C.1     1  UNL1       -0.0583
      3 C           4.1582   -0.7082   30.6842 C.ar    1  UNL1        0.0192
      4 C           5.4204   -0.9880   29.9236 C.ar    1  UNL1        0.0037
      5 C           5.3663   -1.2326   28.4447 C.ar    1  UNL1        0.0276
      6 C           4.0500   -1.1975   27.7263 C.ar    1  UNL1        0.1228
      7 N           2.7878   -0.9177   28.4869 N.ar    1  UNL1       -0.2356
      8 C           2.8419   -0.6730   29.9658 C.ar    1  UNL1        0.0995
      9 CL          4.3746    0.2704   36.5999 Cl      1  UNL1       -0.0822
     10 C           4.3205    0.0257   35.1210 C.ar    1  UNL1        0.0577
     11 C           3.8081    1.0949   34.2022 C.ar    1  UNL1        0.0114
     12 C           3.7540    0.8503   32.7232 C.ar    1  UNL1        0.0009
     13 C           4.2123   -0.4635   32.1631 C.ar    1  UNL1        0.0016
     14 C           4.7247   -1.5327   33.0819 C.ar    1  UNL1        0.0009
     15 C           4.7788   -1.2881   34.5609 C.ar    1  UNL1        0.0114
     16 C           3.8877   -1.9314   23.2896 C.ar    1  UNL1        0.0422
     17 C           3.1239   -0.9942   22.4018 C.ar    1  UNL1        0.0114
     18 C           3.0698   -1.2389   20.9229 C.ar    1  UNL1        0.0375
     19 C           3.7795   -2.4207   20.3317 C.ar    1  UNL1        0.1387
     20 C           4.5434   -3.3578   21.2195 C.ar    1  UNL1        0.0375
     21 C           4.5975   -3.1132   22.6984 C.ar    1  UNL1        0.0114
     22 O           3.7254   -2.6653   18.8528 O.3     1  UNL1       -0.4740
     23 C           4.4093   -1.7194   17.9106 C.3     1  UNL1        0.2226
     24 C           3.6050   -0.7101   17.1462 C.3     1  UNL1        0.1200
     25 N           2.9788    0.4489   17.8636 N.3     1  UNL1       -0.2696
     26 C           1.5217    0.6042   18.1844 C.3     1  UNL1        0.0722
     27 C           1.3421    1.9073   18.9052 C.3     1  UNL1        0.0188
     28 C           2.6882    2.5574   19.0300 C.3     1  UNL1        0.0188
     29 C           3.6997    1.6560   18.3862 C.3     1  UNL1        0.0722
@<TRIPOS>BOND
     1     9    10    1
     2    10    11   ar
     3    11    12   ar
     4    12    13   ar
     5    13     3    1
     6     3     4   ar
     7     4     5   ar
     8     5     6   ar
     9     6     1    1
    10     1     2    3
    11     2    16    1
    12    16    17   ar
    13    17    18   ar
    14    18    19   ar
    15    19    22    1
    16    22    23    1
    17    23    24    1
    18    24    25    1
    19    25    26    1
    20    26    27    1
    21    27    28    1
    22    28    29    1
    23    19    20   ar
    24    20    21   ar
    25     6     7   ar
    26     7     8   ar
    27    13    14   ar
    28    14    15   ar
    29    15    10   ar
    30     8     3   ar
    31    21    16   ar
    32    29    25    1
@<TRIPOS>MOLECULE
*****
 29 32 0 0 0
SMALL
GASTEIGER

@<TRIPOS>ATOM
      1 C           1.1881    2.0923   30.3770 C.1     1  UNL1       -0.0405
      2 C           1.8980    1.8119   31.6683 C.1     1  UNL1       -0.0583
      3 C          -0.9416    2.9333   26.5031 C.ar    1  UNL1        0.0192
      4 C          -0.7322    1.5174   26.9518 C.ar    1  UNL1        0.0037
      5 C          -0.0223    1.2371   28.2431 C.ar    1  UNL1        0.0276
      6 C           0.4782    2.3726   29.0857 C.ar    1  UNL1        0.1228
      7 N           0.2688    3.7885   28.6370 N.ar    1  UNL1       -0.2356
      8 C          -0.4411    4.0688   27.3457 C.ar    1  UNL1        0.0995
      9 CL         -3.7813    4.0546   21.3379 Cl      1  UNL1       -0.0822
     10 C          -3.0714    3.7743   22.6292 C.ar    1  UNL1        0.0577
     11 C          -3.8445    3.7184   23.9133 C.ar    1  UNL1        0.0114
     12 C          -3.1346    3.4381   25.2046 C.ar    1  UNL1        0.0009
     13 C          -1.6515    3.2136   25.2118 C.ar    1  UNL1        0.0016
     14 C          -0.8784    3.2695   23.9277 C.ar    1  UNL1        0.0009
     15 C          -1.5883    3.5498   22.6364 C.ar    1  UNL1        0.0114
     16 C           2.6079    1.5316   32.9596 C.ar    1  UNL1        0.0422
     17 C           3.6303    0.4364   33.0309 C.ar    1  UNL1        0.0114
     18 C           4.3402    0.1561   34.3222 C.ar    1  UNL1        0.0375
     19 C           4.0277    0.9709   35.5422 C.ar    1  UNL1        0.1387
     20 C           3.0053    2.0661   35.4708 C.ar    1  UNL1        0.0375
     21 C           2.2954    2.3464   34.1795 C.ar    1  UNL1        0.0114
     22 O           4.7376    0.6906   36.8335 O.3     1  UNL1       -0.4740
     23 C           5.2020    1.8265   37.6960 C.3     1  UNL1        0.2226
     24 C           4.4775    2.1457   38.9700 C.3     1  UNL1        0.1200
     25 N           3.0150    1.8377   39.0985 N.3     1  UNL1       -0.2696
     26 C           1.9086    2.8442   39.2116 C.3     1  UNL1        0.0722
     27 C           0.6120    2.0977   39.3195 C.3     1  UNL1        0.0188
     28 C           0.9172    0.6297   39.2730 C.3     1  UNL1        0.0188
     29 C           2.4023    0.4691   39.1364 C.3     1  UNL1        0.0722
@<TRIPOS>BOND
     1     9    10    1
     2    10    11   ar
     3    11    12   ar
     4    12    13   ar
     5    13     3    1
     6     3     4   ar
     7     4     5   ar
     8     5     6   ar
     9     6     1    1
    10     1     2    3
    11     2    16    1
    12    16    17   ar
    13    17    18   ar
    14    18    19   ar
    15    19    22    1
    16    22    23    1
    17    23    24    1
    18    24    25    1
    19    25    26    1
    20    26    27    1
    21    27    28    1
    22    28    29    1
    23    19    20   ar
    24    20    21   ar
    25     6     7   ar
    26     7     8   ar
    27    13    14   ar
    28    14    15   ar
    29    15    10   ar
    30     8     3   ar
    31    21    16   ar
    32    29    25    1
@<TRIPOS>MOLECULE
*****
 29 32 0 0 0
SMALL
GASTEIGER

@<TRIPOS>ATOM
      1 C           5.2453   -1.5520   28.6134 C.1     1  UNL1       -0.0405
      2 C           5.2986   -1.2727   30.0862 C.1     1  UNL1       -0.0583
      3 C           5.0852   -2.3897   24.1950 C.ar    1  UNL1        0.0192
      4 C           4.0159   -1.5589   24.8400 C.ar    1  UNL1        0.0037
      5 C           4.0692   -1.2797   26.3128 C.ar    1  UNL1        0.0276
      6 C           5.1919   -1.8312   27.1406 C.ar    1  UNL1        0.1228
      7 N           6.2613   -2.6620   26.4955 N.ar    1  UNL1       -0.2356
      8 C           6.2080   -2.9412   25.0227 C.ar    1  UNL1        0.0995
      9 CL          4.8719   -3.5067   18.3037 Cl      1  UNL1       -0.0822
     10 C           4.9252   -3.2275   19.7765 C.ar    1  UNL1        0.0577
     11 C           6.0276   -3.8094   20.6108 C.ar    1  UNL1        0.0114
     12 C           6.0810   -3.5301   22.0836 C.ar    1  UNL1        0.0009
     13 C           5.0319   -2.6690   22.7222 C.ar    1  UNL1        0.0016
     14 C           3.9295   -2.0871   21.8879 C.ar    1  UNL1        0.0009
     15 C           3.8761   -2.3663   20.4151 C.ar    1  UNL1        0.0114
     16 C           5.3520   -0.9934   31.5590 C.ar    1  UNL1        0.0422
     17 C           4.4428   -1.7321   32.4959 C.ar    1  UNL1        0.0114
     18 C           4.4962   -1.4529   33.9687 C.ar    1  UNL1        0.0375
     19 C           5.4587   -0.4349   34.5046 C.ar    1  UNL1        0.1387
     20 C           6.3678    0.3038   33.5678 C.ar    1  UNL1        0.0375
     21 C           6.3145    0.0245   32.0950 C.ar    1  UNL1        0.0114
     22 O           5.5120   -0.1557   35.9775 O.3     1  UNL1       -0.4740
     23 C           4.2406    0.0043   36.7570 C.3     1  UNL1        0.2226
     24 C           4.1031    1.1235   37.7462 C.3     1  UNL1        0.1200
     25 N           2.7665    1.4247   38.3569 N.3     1  UNL1       -0.2696
     26 C           1.9025    0.4564   39.1091 C.3     1  UNL1        0.0722
     27 C           0.6613    1.1803   39.5397 C.3     1  UNL1        0.0188
     28 C           0.7582    2.5961   39.0536 C.3     1  UNL1        0.0188
     29 C           2.0593    2.7471   38.3225 C.3     1  UNL1        0.0722
@<TRIPOS>BOND
     1     9    10    1
     2    10    11   ar
     3    11    12   ar
     4    12    13   ar
     5    13     3    1
     6     3     4   ar
     7     4     5   ar
     8     5     6   ar
     9     6     1    1
    10     1     2    3
    11     2    16    1
    12    16    17   ar
    13    17    18   ar
    14    18    19   ar
    15    19    22    1
    16    22    23    1
    17    23    24    1
    18    24    25    1
    19    25    26    1
    20    26    27    1
    21    27    28    1
    22    28    29    1
    23    19    20   ar
    24    20    21   ar
    25     6     7   ar
    26     7     8   ar
    27    13    14   ar
    28    14    15   ar
    29    15    10   ar
    30     8     3   ar
    31    21    16   ar
    32    29    25    1
@<TRIPOS>MOLECULE
*****
 29 32 0 0 0
SMALL
GASTEIGER

@<TRIPOS>ATOM
      1 C           3.5449   -0.4410   28.5505 C.1     1  UNL1       -0.0405
      2 C           3.7601   -0.5209   30.0329 C.1     1  UNL1       -0.0583
      3 C           2.8992   -0.2011   24.1036 C.ar    1  UNL1        0.0192
      4 C           3.8299   -1.2310   24.6718 C.ar    1  UNL1        0.0037
      5 C           4.0452   -1.3110   26.1542 C.ar    1  UNL1        0.0276
      6 C           3.3297   -0.3610   27.0682 C.ar    1  UNL1        0.1228
      7 N           2.3989    0.6689   26.5000 N.ar    1  UNL1       -0.2356
      8 C           2.1837    0.7489   25.0176 C.ar    1  UNL1        0.0995
      9 CL          2.0383    0.1187   18.1743 Cl      1  UNL1       -0.0822
     10 C           2.2536    0.0387   19.6566 C.ar    1  UNL1        0.0577
     11 C           2.8906   -1.1791   20.2574 C.ar    1  UNL1        0.0114
     12 C           3.1058   -1.2591   21.7397 C.ar    1  UNL1        0.0009
     13 C           2.6840   -0.1212   22.6212 C.ar    1  UNL1        0.0016
     14 C           2.0470    1.0967   22.0205 C.ar    1  UNL1        0.0009
     15 C           1.8318    1.1766   20.5382 C.ar    1  UNL1        0.0114
     16 C           3.9753   -0.6009   31.5152 C.ar    1  UNL1        0.0422
     17 C           4.4295   -1.8872   32.1388 C.ar    1  UNL1        0.0114
     18 C           4.6447   -1.9672   33.6211 C.ar    1  UNL1        0.0375
     19 C           4.4058   -0.7608   34.4798 C.ar    1  UNL1        0.1387
     20 C           3.9516    0.5256   33.8562 C.ar    1  UNL1        0.0375
     21 C           3.7363    0.6055   32.3739 C.ar    1  UNL1        0.0114
     22 O           4.6210   -0.8407   35.9622 O.3     1  UNL1       -0.4740
     23 C           5.8066   -0.1655   36.5854 C.3     1  UNL1        0.2226
     24 C           5.6513    1.1817   37.2263 C.3     1  UNL1        0.1200
     25 N           4.2875    1.6808   37.6022 N.3     1  UNL1       -0.2696
     26 C           3.4254    1.1436   38.7060 C.3     1  UNL1        0.0722
     27 C           2.1516    1.9354   38.7263 C.3     1  UNL1        0.0188
     28 C           2.2264    2.9619   37.6350 C.3     1  UNL1        0.0188
     29 C           3.5465    2.8045   36.9403 C.3     1  UNL1        0.0722
@<TRIPOS>BOND
     1     9    10    1
     2    10    11   ar
     3    11    12   ar
     4    12    13   ar
     5    13     3    1
     6     3     4   ar
     7     4     5   ar
     8     5     6   ar
     9     6     1    1
    10     1     2    3
    11     2    16    1
    12    16    17   ar
    13    17    18   ar
    14    18    19   ar
    15    19    22    1
    16    22    23    1
    17    23    24    1
    18    24    25    1
    19    25    26    1
    20    26    27    1
    21    27    28    1
    22    28    29    1
    23    19    20   ar
    24    20    21   ar
    25     6     7   ar
    26     7     8   ar
    27    13    14   ar
    28    14    15   ar
    29    15    10   ar
    30     8     3   ar
    31    21    16   ar
    32    29    25    1
@<TRIPOS>MOLECULE
*****
 29 32 0 0 0
SMALL
GASTEIGER

@<TRIPOS>ATOM
      1 C          -1.6384    2.8431   26.2935 C.1     1  UNL1       -0.0405
      2 C          -2.5269    3.3516   25.1971 C.1     1  UNL1       -0.0583
      3 C           1.0271    1.3177   29.5826 C.ar    1  UNL1        0.0192
      4 C          -0.0640    0.4454   29.0361 C.ar    1  UNL1        0.0037
      5 C          -0.9525    0.9539   27.9398 C.ar    1  UNL1        0.0276
      6 C          -0.7499    2.3346   27.3898 C.ar    1  UNL1        0.1228
      7 N           0.3412    3.2069   27.9363 N.ar    1  UNL1       -0.2356
      8 C           1.2297    2.6984   29.0327 C.ar    1  UNL1        0.0995
      9 CL          4.5810   -0.7162   33.9681 Cl      1  UNL1       -0.0822
     10 C           3.6925   -0.2078   32.8717 C.ar    1  UNL1        0.0577
     11 C           3.5397   -0.9952   31.6043 C.ar    1  UNL1        0.0114
     12 C           2.6512   -0.4867   30.5079 C.ar    1  UNL1        0.0009
     13 C           1.9156    0.8092   30.6790 C.ar    1  UNL1        0.0016
     14 C           2.0684    1.5966   31.9464 C.ar    1  UNL1        0.0009
     15 C           2.9569    1.0882   33.0428 C.ar    1  UNL1        0.0114
     16 C          -3.4154    3.8600   24.1007 C.ar    1  UNL1        0.0422
     17 C          -3.0408    5.1015   23.3468 C.ar    1  UNL1        0.0114
     18 C          -3.9293    5.6100   22.2504 C.ar    1  UNL1        0.0375
     19 C          -5.1924    4.8770   21.9080 C.ar    1  UNL1        0.1387
     20 C          -5.5669    3.6355   22.6619 C.ar    1  UNL1        0.0375
     21 C          -4.6785    3.1270   23.7582 C.ar    1  UNL1        0.0114
     22 O          -6.0809    5.3854   20.8116 O.3     1  UNL1       -0.4740
     23 C          -5.7022    5.1661   19.3769 C.3     1  UNL1        0.2226
     24 C          -5.0397    3.8854   18.9634 C.3     1  UNL1        0.1200
     25 N          -3.6285    3.9012   18.4549 N.3     1  UNL1       -0.2696
     26 C          -2.3876    3.8944   19.2976 C.3     1  UNL1        0.0722
     27 C          -1.2027    3.9155   18.3781 C.3     1  UNL1        0.0188
     28 C          -1.7113    3.9352   16.9671 C.3     1  UNL1        0.0188
     29 C          -3.2105    3.9264   17.0146 C.3     1  UNL1        0.0722
@<TRIPOS>BOND
     1     9    10    1
     2    10    11   ar
     3    11    12   ar
     4    12    13   ar
     5    13     3    1
     6     3     4   ar
     7     4     5   ar
     8     5     6   ar
     9     6     1    1
    10     1     2    3
    11     2    16    1
    12    16    17   ar
    13    17    18   ar
    14    18    19   ar
    15    19    22    1
    16    22    23    1
    17    23    24    1
    18    24    25    1
    19    25    26    1
    20    26    27    1
    21    27    28    1
    22    28    29    1
    23    19    20   ar
    24    20    21   ar
    25     6     7   ar
    26     7     8   ar
    27    13    14   ar
    28    14    15   ar
    29    15    10   ar
    30     8     3   ar
    31    21    16   ar
    32    29    25    1
@<TRIPOS>MOLECULE
*****
 29 32 0 0 0
SMALL
GASTEIGER

@<TRIPOS>ATOM
      1 C          -0.9668    2.4696   20.4747 C.1     1  UNL1       -0.0405
      2 C          -2.2600    3.1812   20.7415 C.1     1  UNL1       -0.0583
      3 C           2.9128    0.3346   19.6744 C.ar    1  UNL1        0.0192
      4 C           1.7037   -0.4426   20.1033 C.ar    1  UNL1        0.0037
      5 C           0.4105    0.2691   20.3701 C.ar    1  UNL1        0.0276
      6 C           0.3264    1.7579   20.2079 C.ar    1  UNL1        0.1228
      7 N           1.5355    2.5350   19.7790 N.ar    1  UNL1       -0.2356
      8 C           2.8287    1.8234   19.5122 C.ar    1  UNL1        0.0995
      9 CL          8.0856   -2.5121   18.6072 Cl      1  UNL1       -0.0822
     10 C           6.7924   -1.8004   18.8740 C.ar    1  UNL1        0.0577
     11 C           6.7385   -0.3020   18.8323 C.ar    1  UNL1        0.0114
     12 C           5.4453    0.4097   19.0991 C.ar    1  UNL1        0.0009
     13 C           4.2060   -0.3771   19.4076 C.ar    1  UNL1        0.0016
     14 C           4.2600   -1.8755   19.4493 C.ar    1  UNL1        0.0009
     15 C           5.5532   -2.5872   19.1825 C.ar    1  UNL1        0.0114
     16 C          -3.5532    3.8929   21.0083 C.ar    1  UNL1        0.0422
     17 C          -4.8508    3.2783   20.5745 C.ar    1  UNL1        0.0114
     18 C          -6.1440    3.9899   20.8412 C.ar    1  UNL1        0.0375
     19 C          -6.1396    5.3162   21.5418 C.ar    1  UNL1        0.1387
     20 C          -4.8419    5.9309   21.9756 C.ar    1  UNL1        0.0375
     21 C          -3.5487    5.2192   21.7088 C.ar    1  UNL1        0.0114
     22 O          -7.4328    6.0279   21.8086 O.3     1  UNL1       -0.4740
     23 C          -7.9919    6.0712   23.1998 C.3     1  UNL1        0.2226
     24 C          -7.7851    4.9110   24.1277 C.3     1  UNL1        0.1200
     25 N          -6.5944    4.8829   25.0397 N.3     1  UNL1       -0.2696
     26 C          -5.4633    3.8992   24.9829 C.3     1  UNL1        0.0722
     27 C          -4.4957    4.2419   26.0766 C.3     1  UNL1        0.0188
     28 C          -5.0287    5.4374   26.8093 C.3     1  UNL1        0.0188
     29 C          -6.3257    5.8335   26.1684 C.3     1  UNL1        0.0722
@<TRIPOS>BOND
     1     9    10    1
     2    10    11   ar
     3    11    12   ar
     4    12    13   ar
     5    13     3    1
     6     3     4   ar
     7     4     5   ar
     8     5     6   ar
     9     6     1    1
    10     1     2    3
    11     2    16    1
    12    16    17   ar
    13    17    18   ar
    14    18    19   ar
    15    19    22    1
    16    22    23    1
    17    23    24    1
    18    24    25    1
    19    25    26    1
    20    26    27    1
    21    27    28    1
    22    28    29    1
    23    19    20   ar
    24    20    21   ar
    25     6     7   ar
    26     7     8   ar
    27    13    14   ar
    28    14    15   ar
    29    15    10   ar
    30     8     3   ar
    31    21    16   ar
    32    29    25    1
@<TRIPOS>MOLECULE
*****
 29 32 0 0 0
SMALL
GASTEIGER

@<TRIPOS>ATOM
      1 C           2.8943    0.1808   27.0165 C.1     1  UNL1       -0.0405
      2 C           2.6489    0.1263   25.5377 C.1     1  UNL1       -0.0583
      3 C           3.6304    0.3441   31.4529 C.ar    1  UNL1        0.0192
      4 C           4.7676    0.0719   30.5135 C.ar    1  UNL1        0.0037
      5 C           4.5223    0.0175   29.0347 C.ar    1  UNL1        0.0276
      6 C           3.1397    0.2352   28.4953 C.ar    1  UNL1        0.1228
      7 N           2.0025    0.5075   29.4347 N.ar    1  UNL1       -0.2356
      8 C           2.2478    0.5619   30.9135 C.ar    1  UNL1        0.0995
      9 CL          4.6119    0.5620   37.3681 Cl      1  UNL1       -0.0822
     10 C           4.3665    0.5075   35.8893 C.ar    1  UNL1        0.0577
     11 C           3.7084    1.6629   35.1951 C.ar    1  UNL1        0.0114
     12 C           3.4631    1.6085   33.7164 C.ar    1  UNL1        0.0009
     13 C           3.8758    0.3986   32.9317 C.ar    1  UNL1        0.0016
     14 C           4.5339   -0.7568   33.6258 C.ar    1  UNL1        0.0009
     15 C           4.7792   -0.7024   35.1046 C.ar    1  UNL1        0.0114
     16 C           2.4036    0.0719   24.0589 C.ar    1  UNL1        0.0422
     17 C           1.3567    0.9495   23.4395 C.ar    1  UNL1        0.0114
     18 C           1.1113    0.8951   21.9607 C.ar    1  UNL1        0.0375
     19 C           1.9128   -0.0371   21.1013 C.ar    1  UNL1        0.1387
     20 C           2.9597   -0.9147   21.7207 C.ar    1  UNL1        0.0375
     21 C           3.2051   -0.8603   23.1995 C.ar    1  UNL1        0.0114
     22 O           1.6675   -0.0915   19.6225 O.3     1  UNL1       -0.4740
     23 C           2.6075    0.6003   18.6803 C.3     1  UNL1        0.2226
     24 C           3.2803   -0.1762   17.5875 C.3     1  UNL1        0.1200
     25 N           4.3100   -1.2124   17.9283 N.3     1  UNL1       -0.2696
     26 C           4.0402   -2.5573   18.5353 C.3     1  UNL1        0.0722
     27 C           5.3537   -3.2617   18.7041 C.3     1  UNL1        0.0188
     28 C           6.4354   -2.3521   18.2013 C.3     1  UNL1        0.0188
     29 C           5.7903   -1.0856   17.7219 C.3     1  UNL1        0.0722
@<TRIPOS>BOND
     1     9    10    1
     2    10    11   ar
     3    11    12   ar
     4    12    13   ar
     5    13     3    1
     6     3     4   ar
     7     4     5   ar
     8     5     6   ar
     9     6     1    1
    10     1     2    3
    11     2    16    1
    12    16    17   ar
    13    17    18   ar
    14    18    19   ar
    15    19    22    1
    16    22    23    1
    17    23    24    1
    18    24    25    1
    19    25    26    1
    20    26    27    1
    21    27    28    1
    22    28    29    1
    23    19    20   ar
    24    20    21   ar
    25     6     7   ar
    26     7     8   ar
    27    13    14   ar
    28    14    15   ar
    29    15    10   ar
    30     8     3   ar
    31    21    16   ar
    32    29    25    1
