@<TRIPOS>MOLECULE
*****
 50 57 0 0 0
SMALL
GASTEIGER

@<TRIPOS>ATOM
      1 C           2.4585   -0.1091   20.0704 C.3     1  UNL1        0.1420
      2 O           1.6923    0.6071   21.1426 O.3     1  UNL1       -0.3753
      3 C           2.9199   -0.5568   18.7151 C.3     1  UNL1        0.0395
      4 C           4.0267   -1.5508   18.9071 C.3     1  UNL1        0.0035
      5 C           4.2494   -1.7175   20.3811 C.3     1  UNL1        0.0032
      6 C           5.2095   -2.5655   21.1615 C.3     1  UNL1        0.0001
      7 C           6.1786   -3.4566   20.4426 C.3     1  UNL1        0.0000
      8 C           7.1387   -4.3046   21.2231 C.3     1  UNL1        0.0001
      9 C           7.1296   -4.2616   22.7224 C.3     1  UNL1        0.0025
     10 C           8.0898   -5.1097   23.5028 C.3     1  UNL1        0.0306
     11 C           8.0807   -5.0667   25.0022 C.3     1  UNL1        0.1250
     12 O           9.0407   -5.9147   25.7826 O.3     1  UNL1       -0.3831
     13 C           7.1115   -4.1756   25.7211 C.3     1  UNL1        0.0845
     14 C           6.1514   -3.3276   24.9406 C.3     1  UNL1        0.0184
     15 C           6.1605   -3.3706   23.4413 C.3     1  UNL1        0.0015
     16 C           5.1914   -2.4796   24.1602 C.3     1  UNL1        0.0000
     17 C           5.2004   -2.5225   22.6609 C.3     1  UNL1        0.0000
     18 C           4.2313   -1.6316   23.3798 C.3     1  UNL1        0.0001
     19 C           3.2711   -0.7835   22.5993 C.3     1  UNL1        0.0032
     20 C           3.2802   -0.8265   21.1000 C.3     1  UNL1        0.0333
     21 C           2.3208    0.0563   21.8418 C.3     1  UNL1        0.0033
     22 H           1.0342    1.1913   20.7345 H       1  UNL1        0.2114
     23 H           9.5920   -6.4262   25.1700 H       1  UNL1        0.2104
     24 N           7.1024   -4.1326   27.2205 N.3     1  UNL1       -0.2689
     25 C           7.6653   -2.9428   27.9400 C.3     1  UNL1        0.0939
     26 C           7.6562   -2.8998   29.4394 C.3     1  UNL1        0.1108
     27 N           7.0843   -4.0466   30.2192 N.am    1  UNL1       -0.2754
     28 C           7.0752   -4.0036   31.7185 C.2     1  UNL1        0.2438
     29 O           6.5034   -5.1503   32.4983 O.2     1  UNL1       -0.2731
     30 C           6.5215   -5.2363   29.4996 C.3     1  UNL1        0.1108
     31 C           6.5306   -5.2793   28.0002 C.3     1  UNL1        0.0939
     32 C           7.6381   -2.8138   32.4381 C.3     1  UNL1        0.1523
     33 C           9.0933   -2.4879   32.5990 C.3     1  UNL1        0.0310
     34 C           9.1990   -1.2137   33.3835 C.3     1  UNL1        0.0237
     35 C           7.8090   -0.7522   33.7073 C.3     1  UNL1        0.0942
     36 N           6.8443   -1.7411   33.1231 N.am    1  UNL1       -0.2682
     37 C           5.3484   -1.6698   33.2088 C.2     1  UNL1        0.2671
     38 O           4.5090   -2.7375   32.5723 O.2     1  UNL1       -0.2682
     39 C           4.6920   -0.5306   33.9310 C.ar    1  UNL1        0.1346
     40 C           3.9124    0.4949   33.1626 C.ar    1  UNL1        0.0238
     41 C           3.2560    1.6340   33.8847 C.ar    1  UNL1        0.0032
     42 C           3.3792    1.7476   35.3753 C.ar    1  UNL1        0.0177
     43 C           2.7228    2.8867   36.0975 C.ar    1  UNL1        0.0015
     44 C           2.8460    3.0003   37.5882 C.ar    1  UNL1        0.0001
     45 C           3.6256    1.9747   38.3566 C.ar    1  UNL1        0.0015
     46 C           4.2820    0.8356   37.6344 C.ar    1  UNL1        0.0191
     47 C           4.1588    0.7220   36.1438 C.ar    1  UNL1        0.0814
     48 N           4.8152   -0.4171   35.4216 N.ar    1  UNL1       -0.2408
     49 C           0.5384    1.5869   18.5095 C.1     1  UNL1       -0.0119
     50 C           1.4985    0.7389   19.2899 C.1     1  UNL1       -0.0526
@<TRIPOS>BOND
     1    49    50    3
     2    50     1    1
     3     1     2    1
     4     1     3    1
     5     3     4    1
     6     5     4    1
     7     5     6    1
     8     6     7    1
     9     7     8    1
    10     9     8    1
    11     9    10    1
    12    10    11    1
    13    11    12    1
    14    11    13    1
    15    13    24    1
    16    24    25    1
    17    25    26    1
    18    26    27    1
    19    27    28   am
    20    28    29    2
    21    32    28    1
    22    32    33    1
    23    33    34    1
    24    34    35    1
    25    35    36    1
    26    36    37   am
    27    37    38    2
    28    37    39    1
    29    39    40   ar
    30    40    41   ar
    31    41    42   ar
    32    42    43   ar
    33    43    44   ar
    34    44    45   ar
    35    45    46   ar
    36    46    47   ar
    37    47    48   ar
    38    27    30    1
    39    30    31    1
    40    13    14    1
    41    14    15    1
    42    15    16    1
    43    15    17    1
    44    17    18    1
    45    18    19    1
    46    19    20    1
    47    20    21    1
    48    20     1    1
    49    20     5    1
    50    17     6    1
    51    15     9    1
    52    31    24    1
    53    36    32    1
    54    48    39   ar
    55    47    42   ar
    56     2    22    1
    57    12    23    1
@<TRIPOS>MOLECULE
*****
 50 57 0 0 0
SMALL
GASTEIGER

@<TRIPOS>ATOM
      1 C          -5.8516    5.5248   26.2039 C.3     1  UNL1        0.1420
      2 O          -5.0023    4.8881   27.2637 O.3     1  UNL1       -0.3753
      3 C          -6.9630    6.2868   25.5451 C.3     1  UNL1        0.0395
      4 C          -6.7175    6.2779   24.0653 C.3     1  UNL1        0.0035
      5 C          -5.4543    5.5105   23.8096 C.3     1  UNL1        0.0032
      6 C          -4.7223    5.1753   22.5440 C.3     1  UNL1        0.0001
      7 C          -5.2575    5.6407   21.2223 C.3     1  UNL1        0.0000
      8 C          -4.5254    5.3056   19.9567 C.3     1  UNL1        0.0001
      9 C          -3.2582    4.5050   20.0128 C.3     1  UNL1        0.0025
     10 C          -2.5261    4.1699   18.7472 C.3     1  UNL1        0.0306
     11 C          -1.2589    3.3693   18.8033 C.3     1  UNL1        0.1250
     12 O          -0.5268    3.0341   17.5377 O.3     1  UNL1       -0.3831
     13 C          -0.7237    2.9039   20.1250 C.3     1  UNL1        0.0845
     14 C          -1.4558    3.2390   21.3906 C.3     1  UNL1        0.0184
     15 C          -2.7230    4.0396   21.3345 C.3     1  UNL1        0.0015
     16 C          -2.1878    3.5742   22.6562 C.3     1  UNL1        0.0000
     17 C          -3.4550    4.3747   22.6002 C.3     1  UNL1        0.0000
     18 C          -2.9199    3.9093   23.9218 C.3     1  UNL1        0.0001
     19 C          -3.6519    4.2445   25.1875 C.3     1  UNL1        0.0032
     20 C          -4.9192    5.0451   25.1314 C.3     1  UNL1        0.0333
     21 C          -4.3639    4.5682   26.4407 C.3     1  UNL1        0.0033
     22 H          -5.3969    5.0502   28.1349 H       1  UNL1        0.2114
     23 H          -1.0035    3.4075   16.7799 H       1  UNL1        0.2104
     24 N           0.5436    2.1032   20.1812 N.3     1  UNL1       -0.2689
     25 C           0.4891    0.6063   20.1014 C.3     1  UNL1        0.0939
     26 C           1.7564   -0.1943   20.1575 C.3     1  UNL1        0.1108
     27 N           3.0780    0.5020   20.2934 N.am    1  UNL1       -0.2754
     28 C           4.3453   -0.2985   20.3495 C.2     1  UNL1        0.2438
     29 O           5.6669    0.3978   20.4854 O.2     1  UNL1       -0.2731
     30 C           3.1324    1.9989   20.3732 C.3     1  UNL1        0.1108
     31 C           1.8652    2.7995   20.3170 C.3     1  UNL1        0.0939
     32 C           4.2908   -1.7955   20.2698 C.3     1  UNL1        0.1523
     33 C           3.5626   -2.5972   19.2320 C.3     1  UNL1        0.0310
     34 C           3.7768   -4.0507   19.5347 C.3     1  UNL1        0.0237
     35 C           4.6374   -4.1472   20.7595 C.3     1  UNL1        0.0942
     36 N           4.9551   -2.7534   21.2138 N.am    1  UNL1       -0.2682
     37 C           5.7904   -2.3826   22.4033 C.2     1  UNL1        0.2671
     38 O           6.0226   -0.9385   22.7359 O.2     1  UNL1       -0.2682
     39 C           6.3936   -3.4559   23.2601 C.ar    1  UNL1        0.1346
     40 C           6.1119   -3.4864   24.7331 C.ar    1  UNL1        0.0238
     41 C           6.7151   -4.5598   25.5899 C.ar    1  UNL1        0.0032
     42 C           7.5998   -5.6026   24.9738 C.ar    1  UNL1        0.0177
     43 C           8.2030   -6.6759   25.8306 C.ar    1  UNL1        0.0015
     44 C           9.0878   -7.7188   25.2144 C.ar    1  UNL1        0.0001
     45 C           9.3694   -7.6883   23.7414 C.ar    1  UNL1        0.0015
     46 C           8.7663   -6.6149   22.8846 C.ar    1  UNL1        0.0191
     47 C           7.8815   -5.5721   23.5007 C.ar    1  UNL1        0.0814
     48 N           7.2784   -4.4988   22.6439 N.ar    1  UNL1       -0.2408
     49 C          -7.3157    6.1952   28.7351 C.1     1  UNL1       -0.0119
     50 C          -6.5836    5.8600   27.4695 C.1     1  UNL1       -0.0526
@<TRIPOS>BOND
     1    49    50    3
     2    50     1    1
     3     1     2    1
     4     1     3    1
     5     3     4    1
     6     5     4    1
     7     5     6    1
     8     6     7    1
     9     7     8    1
    10     9     8    1
    11     9    10    1
    12    10    11    1
    13    11    12    1
    14    11    13    1
    15    13    24    1
    16    24    25    1
    17    25    26    1
    18    26    27    1
    19    27    28   am
    20    28    29    2
    21    32    28    1
    22    32    33    1
    23    33    34    1
    24    34    35    1
    25    35    36    1
    26    36    37   am
    27    37    38    2
    28    37    39    1
    29    39    40   ar
    30    40    41   ar
    31    41    42   ar
    32    42    43   ar
    33    43    44   ar
    34    44    45   ar
    35    45    46   ar
    36    46    47   ar
    37    47    48   ar
    38    27    30    1
    39    30    31    1
    40    13    14    1
    41    14    15    1
    42    15    16    1
    43    15    17    1
    44    17    18    1
    45    18    19    1
    46    19    20    1
    47    20    21    1
    48    20     1    1
    49    20     5    1
    50    17     6    1
    51    15     9    1
    52    31    24    1
    53    36    32    1
    54    48    39   ar
    55    47    42   ar
    56     2    22    1
    57    12    23    1
@<TRIPOS>MOLECULE
*****
 50 57 0 0 0
SMALL
GASTEIGER

@<TRIPOS>ATOM
      1 C           3.8699    0.5179   32.9569 C.3     1  UNL1        0.1420
      2 O           3.2420    1.4762   31.9888 O.3     1  UNL1       -0.3753
      3 C           4.2683   -0.1399   34.2447 C.3     1  UNL1        0.0395
      4 C           5.1253   -1.3257   33.9139 C.3     1  UNL1        0.0035
      5 C           5.2565   -1.4008   32.4215 C.3     1  UNL1        0.0032
      6 C           5.9823   -2.3594   31.5248 C.3     1  UNL1        0.0001
      7 C           6.7582   -3.4988   32.1162 C.3     1  UNL1        0.0000
      8 C           7.4840   -4.4574   31.2194 C.3     1  UNL1        0.0001
      9 C           7.4339   -4.2767   29.7312 C.3     1  UNL1        0.0025
     10 C           8.1597   -5.2354   28.8344 C.3     1  UNL1        0.0306
     11 C           8.1096   -5.0546   27.3462 C.3     1  UNL1        0.1250
     12 O           8.8354   -6.0133   26.4494 O.3     1  UNL1       -0.3831
     13 C           7.3337   -3.9152   26.7548 C.3     1  UNL1        0.0845
     14 C           6.6079   -2.9566   27.6516 C.3     1  UNL1        0.0184
     15 C           6.6580   -3.1373   29.1398 C.3     1  UNL1        0.0015
     16 C           5.8822   -1.9979   28.5483 C.3     1  UNL1        0.0000
     17 C           5.9322   -2.1786   30.0365 C.3     1  UNL1        0.0000
     18 C           5.1564   -1.0393   29.4451 C.3     1  UNL1        0.0001
     19 C           4.4306   -0.0806   30.3419 C.3     1  UNL1        0.0032
     20 C           4.4807   -0.2613   31.8301 C.3     1  UNL1        0.0333
     21 C           3.7117    0.8700   31.2147 C.3     1  UNL1        0.0033
     22 H           2.7409    2.1477   32.4775 H       1  UNL1        0.2114
     23 H           9.2826   -6.6846   26.9881 H       1  UNL1        0.2104
     24 N           7.2836   -3.7345   25.2665 N.3     1  UNL1       -0.2689
     25 C           5.9774   -3.8586   24.5395 C.3     1  UNL1        0.0939
     26 C           5.9273   -3.6778   23.0512 C.3     1  UNL1        0.1108
     27 N           7.1834   -3.3730   22.2901 N.am    1  UNL1       -0.2754
     28 C           7.1333   -3.1922   20.8018 C.2     1  UNL1        0.2438
     29 O           8.3894   -2.8873   20.0407 O.2     1  UNL1       -0.2731
     30 C           8.4895   -3.2488   23.0171 C.3     1  UNL1        0.1108
     31 C           8.5396   -3.4296   24.5053 C.3     1  UNL1        0.0939
     32 C           5.8271   -3.3164   20.0748 C.3     1  UNL1        0.1523
     33 C           5.2449   -4.5815   19.5177 C.3     1  UNL1        0.0310
     34 C           3.9318   -4.2441   18.8759 C.3     1  UNL1        0.0237
     35 C           3.7025   -2.7704   19.0364 C.3     1  UNL1        0.0942
     36 N           4.8738   -2.1971   19.7773 N.am    1  UNL1       -0.2682
     37 C           5.0594   -0.7571   20.1547 C.2     1  UNL1        0.2671
     38 O           6.2893   -0.3294   20.8991 O.2     1  UNL1       -0.2682
     39 C           4.0150    0.2550   19.7875 C.ar    1  UNL1        0.1346
     40 C           4.2692    1.2238   18.6710 C.ar    1  UNL1        0.0238
     41 C           3.2248    2.2359   18.3038 C.ar    1  UNL1        0.0032
     42 C           1.9261    2.2792   19.0531 C.ar    1  UNL1        0.0177
     43 C           0.8817    3.2913   18.6859 C.ar    1  UNL1        0.0015
     44 C          -0.4170    3.3345   19.4353 C.ar    1  UNL1        0.0001
     45 C          -0.6713    2.3656   20.5518 C.ar    1  UNL1        0.0015
     46 C           0.3732    1.3535   20.9190 C.ar    1  UNL1        0.0191
     47 C           1.6718    1.3103   20.1697 C.ar    1  UNL1        0.0814
     48 N           2.7163    0.2982   20.5369 N.ar    1  UNL1       -0.2408
     49 C           2.4183    2.4352   34.7505 C.1     1  UNL1       -0.0119
     50 C           3.1441    1.4765   33.8537 C.1     1  UNL1       -0.0526
@<TRIPOS>BOND
     1    49    50    3
     2    50     1    1
     3     1     2    1
     4     1     3    1
     5     3     4    1
     6     5     4    1
     7     5     6    1
     8     6     7    1
     9     7     8    1
    10     9     8    1
    11     9    10    1
    12    10    11    1
    13    11    12    1
    14    11    13    1
    15    13    24    1
    16    24    25    1
    17    25    26    1
    18    26    27    1
    19    27    28   am
    20    28    29    2
    21    32    28    1
    22    32    33    1
    23    33    34    1
    24    34    35    1
    25    35    36    1
    26    36    37   am
    27    37    38    2
    28    37    39    1
    29    39    40   ar
    30    40    41   ar
    31    41    42   ar
    32    42    43   ar
    33    43    44   ar
    34    44    45   ar
    35    45    46   ar
    36    46    47   ar
    37    47    48   ar
    38    27    30    1
    39    30    31    1
    40    13    14    1
    41    14    15    1
    42    15    16    1
    43    15    17    1
    44    17    18    1
    45    18    19    1
    46    19    20    1
    47    20    21    1
    48    20     1    1
    49    20     5    1
    50    17     6    1
    51    15     9    1
    52    31    24    1
    53    36    32    1
    54    48    39   ar
    55    47    42   ar
    56     2    22    1
    57    12    23    1
@<TRIPOS>MOLECULE
*****
 50 57 0 0 0
SMALL
GASTEIGER

@<TRIPOS>ATOM
      1 C          -4.9211    4.8601   25.7345 C.3     1  UNL1        0.1420
      2 O          -4.9477    4.7804   27.2320 O.3     1  UNL1       -0.3753
      3 C          -5.3259    5.1672   24.3231 C.3     1  UNL1        0.0395
      4 C          -4.2554    4.6469   23.4102 C.3     1  UNL1        0.0035
      5 C          -3.1890    4.0182   24.2574 C.3     1  UNL1        0.0032
      6 C          -1.8965    3.3428   23.9064 C.3     1  UNL1        0.0001
      7 C          -1.4851    3.2110   22.4700 C.3     1  UNL1        0.0000
      8 C          -0.1925    2.5355   22.1190 C.3     1  UNL1        0.0001
      9 C           0.6885    1.9919   23.2044 C.3     1  UNL1        0.0025
     10 C           1.9811    1.3165   22.8534 C.3     1  UNL1        0.0306
     11 C           2.8621    0.7729   23.9388 C.3     1  UNL1        0.1250
     12 O           4.1546    0.0974   23.5878 O.3     1  UNL1       -0.3831
     13 C           2.4506    0.9047   25.3752 C.3     1  UNL1        0.0845
     14 C           1.1581    1.5801   25.7262 C.3     1  UNL1        0.0184
     15 C           0.2771    2.1237   24.6408 C.3     1  UNL1        0.0015
     16 C          -0.1344    2.2555   26.0772 C.3     1  UNL1        0.0000
     17 C          -1.0155    2.7992   24.9918 C.3     1  UNL1        0.0000
     18 C          -1.4269    2.9310   26.4282 C.3     1  UNL1        0.0001
     19 C          -2.7194    3.6064   26.7793 C.3     1  UNL1        0.0032
     20 C          -3.6005    4.1500   25.6938 C.3     1  UNL1        0.0333
     21 C          -3.9899    4.2695   27.1375 C.3     1  UNL1        0.0033
     22 H          -5.7584    5.1971   27.5637 H       1  UNL1        0.2114
     23 H           4.2679    0.0968   22.6245 H       1  UNL1        0.2104
     24 N           3.3318    0.3610   26.4607 N.3     1  UNL1       -0.2689
     25 C           4.0253    1.2989   27.4038 C.3     1  UNL1        0.0939
     26 C           4.9064    0.7553   28.4893 C.3     1  UNL1        0.1108
     27 N           5.0939   -0.7262   28.6316 N.am    1  UNL1       -0.2754
     28 C           5.9749   -1.2698   29.7170 C.2     1  UNL1        0.2438
     29 O           6.1624   -2.7512   29.8594 O.2     1  UNL1       -0.2731
     30 C           4.4003   -1.6640   27.6885 C.3     1  UNL1        0.1108
     31 C           3.5192   -1.1203   26.6031 C.3     1  UNL1        0.0939
     32 C           6.6685   -0.3319   30.6602 C.3     1  UNL1        0.1523
     33 C           7.9818    0.3511   30.4175 C.3     1  UNL1        0.0310
     34 C           8.2954    1.1927   31.6189 C.3     1  UNL1        0.0237
     35 C           7.1761    1.0298   32.6040 C.3     1  UNL1        0.0942
     36 N           6.1706    0.0875   32.0115 N.am    1  UNL1       -0.2682
     37 C           4.8917   -0.3573   32.6570 C.2     1  UNL1        0.2671
     38 O           3.9806   -1.3085   31.9393 O.2     1  UNL1       -0.2682
     39 C           4.5239    0.1492   34.0202 C.ar    1  UNL1        0.1346
     40 C           5.0288   -0.5564   35.2438 C.ar    1  UNL1        0.0238
     41 C           4.6610   -0.0499   36.6070 C.ar    1  UNL1        0.0032
     42 C           3.7884    1.1621   36.7466 C.ar    1  UNL1        0.0177
     43 C           3.4206    1.6685   38.1097 C.ar    1  UNL1        0.0015
     44 C           2.5480    2.8806   38.2493 C.ar    1  UNL1        0.0001
     45 C           2.0432    3.5862   37.0257 C.ar    1  UNL1        0.0015
     46 C           2.4109    3.0798   35.6625 C.ar    1  UNL1        0.0191
     47 C           3.2835    1.8677   35.5229 C.ar    1  UNL1        0.0814
     48 N           3.6513    1.3613   34.1597 N.ar    1  UNL1       -0.2408
     49 C          -7.5061    6.2110   26.4364 C.1     1  UNL1       -0.0119
     50 C          -6.2136    5.5355   26.0854 C.1     1  UNL1       -0.0526
@<TRIPOS>BOND
     1    49    50    3
     2    50     1    1
     3     1     2    1
     4     1     3    1
     5     3     4    1
     6     5     4    1
     7     5     6    1
     8     6     7    1
     9     7     8    1
    10     9     8    1
    11     9    10    1
    12    10    11    1
    13    11    12    1
    14    11    13    1
    15    13    24    1
    16    24    25    1
    17    25    26    1
    18    26    27    1
    19    27    28   am
    20    28    29    2
    21    32    28    1
    22    32    33    1
    23    33    34    1
    24    34    35    1
    25    35    36    1
    26    36    37   am
    27    37    38    2
    28    37    39    1
    29    39    40   ar
    30    40    41   ar
    31    41    42   ar
    32    42    43   ar
    33    43    44   ar
    34    44    45   ar
    35    45    46   ar
    36    46    47   ar
    37    47    48   ar
    38    27    30    1
    39    30    31    1
    40    13    14    1
    41    14    15    1
    42    15    16    1
    43    15    17    1
    44    17    18    1
    45    18    19    1
    46    19    20    1
    47    20    21    1
    48    20     1    1
    49    20     5    1
    50    17     6    1
    51    15     9    1
    52    31    24    1
    53    36    32    1
    54    48    39   ar
    55    47    42   ar
    56     2    22    1
    57    12    23    1
@<TRIPOS>MOLECULE
*****
 50 57 0 0 0
SMALL
GASTEIGER

@<TRIPOS>ATOM
      1 C           6.4596   -1.9488   22.3858 C.3     1  UNL1        0.1420
      2 O           6.3119   -0.4600   22.4920 O.3     1  UNL1       -0.3753
      3 C           6.5926   -3.3225   21.7982 C.3     1  UNL1        0.0395
      4 C           6.6976   -4.3023   22.9292 C.3     1  UNL1        0.0035
      5 C           6.6294   -3.5341   24.2157 C.3     1  UNL1        0.0032
      6 C           6.6822   -3.9711   25.6497 C.3     1  UNL1        0.0001
      7 C           6.8292   -5.4257   25.9855 C.3     1  UNL1        0.0000
      8 C           6.8821   -5.8627   27.4195 C.3     1  UNL1        0.0001
      9 C           6.7878   -4.8452   28.5176 C.3     1  UNL1        0.0025
     10 C           6.8406   -5.2823   29.9516 C.3     1  UNL1        0.0306
     11 C           6.7463   -4.2648   31.0496 C.3     1  UNL1        0.1250
     12 O           6.7992   -4.7018   32.4836 O.3     1  UNL1       -0.3831
     13 C           6.5993   -2.8103   30.7138 C.3     1  UNL1        0.0845
     14 C           6.5465   -2.3733   29.2798 C.3     1  UNL1        0.0184
     15 C           6.6407   -3.3908   28.1818 C.3     1  UNL1        0.0015
     16 C           6.4936   -1.9363   27.8459 C.3     1  UNL1        0.0000
     17 C           6.5879   -2.9537   26.7478 C.3     1  UNL1        0.0000
     18 C           6.4408   -1.4992   26.4120 C.3     1  UNL1        0.0001
     19 C           6.3880   -1.0621   24.9780 C.3     1  UNL1        0.0032
     20 C           6.4823   -2.0796   23.8799 C.3     1  UNL1        0.0333
     21 C           6.3348   -0.6195   23.5696 C.3     1  UNL1        0.0033
     22 H           6.2679   -0.0752   21.6027 H       1  UNL1        0.2114
     23 H           6.8955   -5.6662   32.5244 H       1  UNL1        0.2104
     24 N           6.5050   -1.7928   31.8120 N.3     1  UNL1       -0.2689
     25 C           5.2656   -1.7095   32.6528 C.3     1  UNL1        0.0939
     26 C           5.1713   -0.6920   33.7509 C.3     1  UNL1        0.1108
     27 N           6.3164    0.2422   34.0082 N.am    1  UNL1       -0.2754
     28 C           6.2222    1.2596   35.1062 C.2     1  UNL1        0.2438
     29 O           7.3672    2.1938   35.3635 O.2     1  UNL1       -0.2731
     30 C           7.5557    0.1588   33.1673 C.3     1  UNL1        0.1108
     31 C           7.6500   -0.8586   32.0692 C.3     1  UNL1        0.0939
     32 C           4.9827    1.3429   35.9471 C.3     1  UNL1        0.1523
     33 C           4.7305    0.5944   37.2223 C.3     1  UNL1        0.0310
     34 C           3.3698    0.9782   37.7236 C.3     1  UNL1        0.0237
     35 C           2.7812    1.9640   36.7584 C.3     1  UNL1        0.0942
     36 N           3.7781    2.1894   35.6604 N.am    1  UNL1       -0.2682
     37 C           3.6013    3.1013   34.4825 C.2     1  UNL1        0.2671
     38 O           4.6912    3.2247   33.4594 O.2     1  UNL1       -0.2682
     39 C           2.3346    3.8896   34.3278 C.ar    1  UNL1        0.1346
     40 C           1.5215    3.7640   33.0736 C.ar    1  UNL1        0.0238
     41 C           0.2547    4.5523   32.9189 C.ar    1  UNL1        0.0032
     42 C          -0.1989    5.4663   34.0183 C.ar    1  UNL1        0.0177
     43 C          -1.4656    6.2546   33.8636 C.ar    1  UNL1        0.0015
     44 C          -1.9192    7.1686   34.9632 C.ar    1  UNL1        0.0001
     45 C          -1.1061    7.2942   36.2174 C.ar    1  UNL1        0.0015
     46 C           0.1606    6.5058   36.3721 C.ar    1  UNL1        0.0191
     47 C           0.6142    5.5919   35.2726 C.ar    1  UNL1        0.0814
     48 N           1.8809    4.8036   35.4274 N.ar    1  UNL1       -0.2408
     49 C           6.3540   -1.0748   19.5179 C.1     1  UNL1       -0.0119
     50 C           6.4068   -1.5118   20.9518 C.1     1  UNL1       -0.0526
@<TRIPOS>BOND
     1    49    50    3
     2    50     1    1
     3     1     2    1
     4     1     3    1
     5     3     4    1
     6     5     4    1
     7     5     6    1
     8     6     7    1
     9     7     8    1
    10     9     8    1
    11     9    10    1
    12    10    11    1
    13    11    12    1
    14    11    13    1
    15    13    24    1
    16    24    25    1
    17    25    26    1
    18    26    27    1
    19    27    28   am
    20    28    29    2
    21    32    28    1
    22    32    33    1
    23    33    34    1
    24    34    35    1
    25    35    36    1
    26    36    37   am
    27    37    38    2
    28    37    39    1
    29    39    40   ar
    30    40    41   ar
    31    41    42   ar
    32    42    43   ar
    33    43    44   ar
    34    44    45   ar
    35    45    46   ar
    36    46    47   ar
    37    47    48   ar
    38    27    30    1
    39    30    31    1
    40    13    14    1
    41    14    15    1
    42    15    16    1
    43    15    17    1
    44    17    18    1
    45    18    19    1
    46    19    20    1
    47    20    21    1
    48    20     1    1
    49    20     5    1
    50    17     6    1
    51    15     9    1
    52    31    24    1
    53    36    32    1
    54    48    39   ar
    55    47    42   ar
    56     2    22    1
    57    12    23    1
@<TRIPOS>MOLECULE
*****
 50 57 0 0 0
SMALL
GASTEIGER

@<TRIPOS>ATOM
      1 C           3.8288    3.6182   38.6106 C.3     1  UNL1        0.1420
      2 O           3.1946    4.9430   38.3067 O.3     1  UNL1       -0.3753
      3 C           4.5070    2.5086   39.3582 C.3     1  UNL1        0.0395
      4 C           4.6960    1.3600   38.4121 C.3     1  UNL1        0.0035
      5 C           4.1347    1.7597   37.0798 C.3     1  UNL1        0.0032
      6 C           4.0423    1.0332   35.7707 C.3     1  UNL1        0.0001
      7 C           4.5783   -0.3624   35.6480 C.3     1  UNL1        0.0000
      8 C           4.4860   -1.0889   34.3390 C.3     1  UNL1        0.0001
      9 C           3.8576   -0.4198   33.1526 C.3     1  UNL1        0.0025
     10 C           3.7653   -1.1463   31.8435 C.3     1  UNL1        0.0306
     11 C           3.1370   -0.4772   30.6571 C.3     1  UNL1        0.1250
     12 O           3.0447   -1.2037   29.3481 O.3     1  UNL1       -0.3831
     13 C           2.6010    0.9184   30.7798 C.3     1  UNL1        0.0845
     14 C           2.6934    1.6448   32.0889 C.3     1  UNL1        0.0184
     15 C           3.3217    0.9757   33.2753 C.3     1  UNL1        0.0015
     16 C           2.7857    2.3713   33.3980 C.3     1  UNL1        0.0000
     17 C           3.4140    1.7023   34.5844 C.3     1  UNL1        0.0000
     18 C           2.8781    3.0978   34.7070 C.3     1  UNL1        0.0001
     19 C           2.9704    3.8244   36.0161 C.3     1  UNL1        0.0032
     20 C           3.5987    3.1553   37.2025 C.3     1  UNL1        0.0333
     21 C           3.0555    4.5502   37.3000 C.3     1  UNL1        0.0033
     22 H           3.2049    5.4967   39.1031 H       1  UNL1        0.2114
     23 H           3.4346   -2.0871   29.4403 H       1  UNL1        0.2104
     24 N           1.9727    1.5875   29.5934 N.3     1  UNL1       -0.2689
     25 C           2.7999    1.8945   28.3803 C.3     1  UNL1        0.0939
     26 C           2.1715    2.5636   27.1939 C.3     1  UNL1        0.1108
     27 N           0.7161    2.9256   27.2206 N.am    1  UNL1       -0.2754
     28 C           0.0878    3.5947   26.0342 C.2     1  UNL1        0.2438
     29 O          -1.3677    3.9567   26.0610 O.2     1  UNL1       -0.2731
     30 C          -0.1110    2.6186   28.4337 C.3     1  UNL1        0.1108
     31 C           0.5173    1.9495   29.6201 C.3     1  UNL1        0.0939
     32 C           0.9149    3.9018   24.8211 C.3     1  UNL1        0.1523
     33 C           1.4482    5.2498   24.4357 C.3     1  UNL1        0.0310
     34 C           2.2169    5.0958   23.1568 C.3     1  UNL1        0.0237
     35 C           2.1586    3.6526   22.7519 C.3     1  UNL1        0.0942
     36 N           1.3540    2.9147   23.7805 N.am    1  UNL1       -0.2682
     37 C           1.0429    1.4473   23.7702 C.2     1  UNL1        0.2671
     38 O           0.2218    0.8470   24.8726 O.2     1  UNL1       -0.2682
     39 C           1.5531    0.5803   22.6575 C.ar    1  UNL1        0.1346
     40 C           0.9510    0.6862   21.2878 C.ar    1  UNL1        0.0238
     41 C           1.4611   -0.1808   20.1752 C.ar    1  UNL1        0.0032
     42 C           2.5734   -1.1538   20.4322 C.ar    1  UNL1        0.0177
     43 C           3.0836   -2.0208   19.3196 C.ar    1  UNL1        0.0015
     44 C           4.1959   -2.9938   19.5767 C.ar    1  UNL1        0.0001
     45 C           4.7980   -3.0998   20.9464 C.ar    1  UNL1        0.0015
     46 C           4.2878   -2.2327   22.0591 C.ar    1  UNL1        0.0191
     47 C           3.1756   -1.2598   21.8020 C.ar    1  UNL1        0.0814
     48 N           2.6654   -0.3927   22.9147 N.ar    1  UNL1       -0.2408
     49 C           4.0135    5.0711   41.2288 C.1     1  UNL1       -0.0119
     50 C           3.9211    4.3446   39.9197 C.1     1  UNL1       -0.0526
@<TRIPOS>BOND
     1    49    50    3
     2    50     1    1
     3     1     2    1
     4     1     3    1
     5     3     4    1
     6     5     4    1
     7     5     6    1
     8     6     7    1
     9     7     8    1
    10     9     8    1
    11     9    10    1
    12    10    11    1
    13    11    12    1
    14    11    13    1
    15    13    24    1
    16    24    25    1
    17    25    26    1
    18    26    27    1
    19    27    28   am
    20    28    29    2
    21    32    28    1
    22    32    33    1
    23    33    34    1
    24    34    35    1
    25    35    36    1
    26    36    37   am
    27    37    38    2
    28    37    39    1
    29    39    40   ar
    30    40    41   ar
    31    41    42   ar
    32    42    43   ar
    33    43    44   ar
    34    44    45   ar
    35    45    46   ar
    36    46    47   ar
    37    47    48   ar
    38    27    30    1
    39    30    31    1
    40    13    14    1
    41    14    15    1
    42    15    16    1
    43    15    17    1
    44    17    18    1
    45    18    19    1
    46    19    20    1
    47    20    21    1
    48    20     1    1
    49    20     5    1
    50    17     6    1
    51    15     9    1
    52    31    24    1
    53    36    32    1
    54    48    39   ar
    55    47    42   ar
    56     2    22    1
    57    12    23    1
@<TRIPOS>MOLECULE
*****
 50 57 0 0 0
SMALL
GASTEIGER

@<TRIPOS>ATOM
      1 C           2.3029    2.3022   32.2863 C.3     1  UNL1        0.1420
      2 O           3.4540    1.3407   32.2672 O.3     1  UNL1       -0.3753
      3 C           1.2311    3.2215   32.7924 C.3     1  UNL1        0.0395
      4 C           0.4977    3.7754   31.6069 C.3     1  UNL1        0.0035
      5 C           1.1162    3.1984   30.3682 C.3     1  UNL1        0.0032
      6 C           0.8076    3.3844   28.9121 C.3     1  UNL1        0.0001
      7 C          -0.3081    4.2948   28.4922 C.3     1  UNL1        0.0000
      8 C          -0.6167    4.4808   27.0361 C.3     1  UNL1        0.0001
      9 C           0.1905    3.7564   26.0000 C.3     1  UNL1        0.0025
     10 C          -0.1182    3.9424   24.5438 C.3     1  UNL1        0.0306
     11 C           0.6890    3.2180   23.5076 C.3     1  UNL1        0.1250
     12 O           0.3804    3.4040   22.0516 O.3     1  UNL1       -0.3831
     13 C           1.8047    2.3075   23.9275 C.3     1  UNL1        0.0845
     14 C           2.1132    2.1215   25.3836 C.3     1  UNL1        0.0184
     15 C           1.3061    2.8460   26.4198 C.3     1  UNL1        0.0015
     16 C           2.4218    1.9355   26.8397 C.3     1  UNL1        0.0000
     17 C           1.6147    2.6599   27.8759 C.3     1  UNL1        0.0000
     18 C           2.7304    1.7495   28.2958 C.3     1  UNL1        0.0001
     19 C           3.0390    1.5635   29.7519 C.3     1  UNL1        0.0032
     20 C           2.2319    2.2879   30.7881 C.3     1  UNL1        0.0333
     21 C           3.3525    1.3722   31.1827 C.3     1  UNL1        0.0033
     22 H           3.7332    1.1524   33.1769 H       1  UNL1        0.2114
     23 H          -0.3630    4.0195   21.9546 H       1  UNL1        0.2104
     24 N           2.6118    1.5830   22.8913 N.3     1  UNL1       -0.2689
     25 C           2.4560    0.1009   22.7205 C.3     1  UNL1        0.0939
     26 C           3.2632   -0.6235   21.6843 C.3     1  UNL1        0.1108
     27 N           4.2260    0.1341   20.8189 N.am    1  UNL1       -0.2754
     28 C           5.0332   -0.5903   19.7827 C.2     1  UNL1        0.2438
     29 O           5.9961    0.1673   18.9174 O.2     1  UNL1       -0.2731
     30 C           4.3818    1.6162   20.9898 C.3     1  UNL1        0.1108
     31 C           3.5747    2.3406   22.0260 C.3     1  UNL1        0.0939
     32 C           4.8774   -2.0725   19.6119 C.3     1  UNL1        0.1523
     33 C           3.9325   -2.7569   18.6691 C.3     1  UNL1        0.0310
     34 C           4.1103   -4.2378   18.8286 C.3     1  UNL1        0.0237
     35 C           5.1650   -4.4686   19.8698 C.3     1  UNL1        0.0942
     36 N           5.6391   -3.1304   20.3540 N.am    1  UNL1       -0.2682
     37 C           6.6904   -2.8919   21.3971 C.2     1  UNL1        0.2671
     38 O           7.0620   -1.4902   21.7806 O.2     1  UNL1       -0.2682
     39 C           7.3699   -4.0551   22.0567 C.ar    1  UNL1        0.1346
     40 C           8.4294   -4.8205   21.3208 C.ar    1  UNL1        0.0238
     41 C           9.1090   -5.9837   21.9804 C.ar    1  UNL1        0.0032
     42 C           8.7291   -6.3816   23.3759 C.ar    1  UNL1        0.0177
     43 C           9.4087   -7.5448   24.0354 C.ar    1  UNL1        0.0015
     44 C           9.0287   -7.9426   25.4310 C.ar    1  UNL1        0.0001
     45 C           7.9692   -7.1772   26.1669 C.ar    1  UNL1        0.0015
     46 C           7.2896   -6.0140   25.5073 C.ar    1  UNL1        0.0191
     47 C           7.6695   -5.6162   24.1118 C.ar    1  UNL1        0.0814
     48 N           6.9900   -4.4529   23.4522 N.ar    1  UNL1       -0.2408
     49 C           2.9201    1.9302   35.1985 C.1     1  UNL1       -0.0119
     50 C           2.6115    2.1162   33.7424 C.1     1  UNL1       -0.0526
@<TRIPOS>BOND
     1    49    50    3
     2    50     1    1
     3     1     2    1
     4     1     3    1
     5     3     4    1
     6     5     4    1
     7     5     6    1
     8     6     7    1
     9     7     8    1
    10     9     8    1
    11     9    10    1
    12    10    11    1
    13    11    12    1
    14    11    13    1
    15    13    24    1
    16    24    25    1
    17    25    26    1
    18    26    27    1
    19    27    28   am
    20    28    29    2
    21    32    28    1
    22    32    33    1
    23    33    34    1
    24    34    35    1
    25    35    36    1
    26    36    37   am
    27    37    38    2
    28    37    39    1
    29    39    40   ar
    30    40    41   ar
    31    41    42   ar
    32    42    43   ar
    33    43    44   ar
    34    44    45   ar
    35    45    46   ar
    36    46    47   ar
    37    47    48   ar
    38    27    30    1
    39    30    31    1
    40    13    14    1
    41    14    15    1
    42    15    16    1
    43    15    17    1
    44    17    18    1
    45    18    19    1
    46    19    20    1
    47    20    21    1
    48    20     1    1
    49    20     5    1
    50    17     6    1
    51    15     9    1
    52    31    24    1
    53    36    32    1
    54    48    39   ar
    55    47    42   ar
    56     2    22    1
    57    12    23    1
@<TRIPOS>MOLECULE
*****
 50 57 0 0 0
SMALL
GASTEIGER

@<TRIPOS>ATOM
      1 C           5.3096    4.3362   41.7421 C.3     1  UNL1        0.1420
      2 O           3.9348    4.8348   41.4085 O.3     1  UNL1       -0.3753
      3 C           6.5756    4.0677   42.5005 C.3     1  UNL1        0.0395
      4 C           7.4862    3.2700   41.6148 C.3     1  UNL1        0.0035
      5 C           6.7830    3.0454   40.3090 C.3     1  UNL1        0.0032
      6 C           7.1937    2.3260   39.0585 C.3     1  UNL1        0.0001
      7 C           8.5389    1.6671   38.9798 C.3     1  UNL1        0.0000
      8 C           8.9497    0.9477   37.7293 C.3     1  UNL1        0.0001
      9 C           8.0152    0.8873   36.5575 C.3     1  UNL1        0.0025
     10 C           8.4261    0.1678   35.3070 C.3     1  UNL1        0.0306
     11 C           7.4916    0.1075   34.1352 C.3     1  UNL1        0.1250
     12 O           7.9024   -0.6119   32.8847 O.3     1  UNL1       -0.3831
     13 C           6.1464    0.7664   34.2139 C.3     1  UNL1        0.0845
     14 C           5.7357    1.4858   35.4644 C.3     1  UNL1        0.0184
     15 C           6.6701    1.5462   36.6362 C.3     1  UNL1        0.0015
     16 C           5.3249    2.2052   36.7149 C.3     1  UNL1        0.0000
     17 C           6.2593    2.2656   37.8867 C.3     1  UNL1        0.0000
     18 C           4.9142    2.9246   37.9654 C.3     1  UNL1        0.0001
     19 C           4.5033    3.6440   39.2159 C.3     1  UNL1        0.0032
     20 C           5.4378    3.7044   40.3877 C.3     1  UNL1        0.0333
     21 C           4.0875    4.3554   40.4419 C.3     1  UNL1        0.0033
     22 H           3.5750    5.3222   42.1660 H       1  UNL1        0.2114
     23 H           8.7934   -0.9777   33.0000 H       1  UNL1        0.2104
     24 N           5.2120    0.7060   33.0420 N.3     1  UNL1       -0.2689
     25 C           5.4864    1.5325   31.8207 C.3     1  UNL1        0.0939
     26 C           4.5519    1.4721   30.6488 C.3     1  UNL1        0.1108
     27 N           3.3431    0.5852   30.6984 N.am    1  UNL1       -0.2754
     28 C           2.4087    0.5248   29.5266 C.2     1  UNL1        0.2438
     29 O           1.2000   -0.3620   29.5761 O.2     1  UNL1       -0.2731
     30 C           3.0688   -0.2412   31.9197 C.3     1  UNL1        0.1108
     31 C           4.0033   -0.1808   33.0915 C.3     1  UNL1        0.0939
     32 C           2.6831    1.3513   28.3052 C.3     1  UNL1        0.1523
     33 C           2.5543    2.8422   28.2023 C.3     1  UNL1        0.0310
     34 C           2.9260    3.2443   26.8057 C.3     1  UNL1        0.0237
     35 C           3.2845    2.0018   26.0456 C.3     1  UNL1        0.0942
     36 N           3.1344    0.8319   26.9723 N.am    1  UNL1       -0.2682
     37 C           3.3906   -0.6051   26.6268 C.2     1  UNL1        0.2671
     38 O           3.1967   -1.6718   27.6634 O.2     1  UNL1       -0.2682
     39 C           3.8406   -0.9755   25.2446 C.ar    1  UNL1        0.1346
     40 C           5.1897   -1.5973   25.0365 C.ar    1  UNL1        0.0238
     41 C           5.6397   -1.9676   23.6544 C.ar    1  UNL1        0.0032
     42 C           4.7406   -1.7161   22.4803 C.ar    1  UNL1        0.0177
     43 C           5.1907   -2.0864   21.0982 C.ar    1  UNL1        0.0015
     44 C           4.2915   -1.8349   19.9241 C.ar    1  UNL1        0.0001
     45 C           2.9425   -1.2131   20.1322 C.ar    1  UNL1        0.0015
     46 C           2.4924   -0.8428   21.5143 C.ar    1  UNL1        0.0191
     47 C           3.3915   -1.0943   22.6884 C.ar    1  UNL1        0.0814
     48 N           2.9415   -0.7240   24.0705 N.ar    1  UNL1       -0.2408
     49 C           4.4881    5.7750   44.2431 C.1     1  UNL1       -0.0119
     50 C           4.8988    5.0556   42.9926 C.1     1  UNL1       -0.0526
@<TRIPOS>BOND
     1    49    50    3
     2    50     1    1
     3     1     2    1
     4     1     3    1
     5     3     4    1
     6     5     4    1
     7     5     6    1
     8     6     7    1
     9     7     8    1
    10     9     8    1
    11     9    10    1
    12    10    11    1
    13    11    12    1
    14    11    13    1
    15    13    24    1
    16    24    25    1
    17    25    26    1
    18    26    27    1
    19    27    28   am
    20    28    29    2
    21    32    28    1
    22    32    33    1
    23    33    34    1
    24    34    35    1
    25    35    36    1
    26    36    37   am
    27    37    38    2
    28    37    39    1
    29    39    40   ar
    30    40    41   ar
    31    41    42   ar
    32    42    43   ar
    33    43    44   ar
    34    44    45   ar
    35    45    46   ar
    36    46    47   ar
    37    47    48   ar
    38    27    30    1
    39    30    31    1
    40    13    14    1
    41    14    15    1
    42    15    16    1
    43    15    17    1
    44    17    18    1
    45    18    19    1
    46    19    20    1
    47    20    21    1
    48    20     1    1
    49    20     5    1
    50    17     6    1
    51    15     9    1
    52    31    24    1
    53    36    32    1
    54    48    39   ar
    55    47    42   ar
    56     2    22    1
    57    12    23    1
@<TRIPOS>MOLECULE
*****
 50 57 0 0 0
SMALL
GASTEIGER

@<TRIPOS>ATOM
      1 C           8.0837   -6.0939   24.7491 C.3     1  UNL1        0.1420
      2 O           7.7912   -4.9800   23.7881 O.3     1  UNL1       -0.3753
      3 C           8.5006   -7.4311   25.2859 C.3     1  UNL1        0.0395
      4 C           8.3327   -7.4051   26.7763 C.3     1  UNL1        0.0035
      5 C           7.8121   -6.0518   27.1605 C.3     1  UNL1        0.0032
      6 C           7.4582   -5.4528   28.4894 C.3     1  UNL1        0.0001
      7 C           7.6121   -6.2631   29.7423 C.3     1  UNL1        0.0000
      8 C           7.2582   -5.6640   31.0711 C.3     1  UNL1        0.0001
      9 C           6.7504   -4.2546   31.1471 C.3     1  UNL1        0.0025
     10 C           6.3966   -3.6556   32.4761 C.3     1  UNL1        0.0306
     11 C           5.8888   -2.2462   32.5520 C.3     1  UNL1        0.1250
     12 O           5.5350   -1.6471   33.8809 O.3     1  UNL1       -0.3831
     13 C           5.7350   -1.4359   31.2991 C.3     1  UNL1        0.0845
     14 C           6.0889   -2.0349   29.9703 C.3     1  UNL1        0.0184
     15 C           6.5966   -3.4443   29.8943 C.3     1  UNL1        0.0015
     16 C           6.4427   -2.6340   28.6414 C.3     1  UNL1        0.0000
     17 C           6.9505   -4.0434   28.5654 C.3     1  UNL1        0.0000
     18 C           6.7966   -3.2331   27.3126 C.3     1  UNL1        0.0001
     19 C           7.1505   -3.8321   25.9836 C.3     1  UNL1        0.0032
     20 C           7.6582   -5.2415   25.9077 C.3     1  UNL1        0.0333
     21 C           7.4957   -4.4110   24.6691 C.3     1  UNL1        0.0033
     22 H           7.9907   -5.2716   22.8847 H       1  UNL1        0.2114
     23 H           5.6916   -2.2993   34.5816 H       1  UNL1        0.2104
     24 N           5.2272   -0.0264   31.3751 N.3     1  UNL1       -0.2689
     25 C           3.7625    0.2337   31.5677 C.3     1  UNL1        0.0939
     26 C           3.2548    1.6432   31.6437 C.3     1  UNL1        0.1108
     27 N           4.2117    2.7924   31.5271 N.am    1  UNL1       -0.2754
     28 C           3.7040    4.2018   31.6031 C.2     1  UNL1        0.2438
     29 O           4.6609    5.3510   31.4865 O.2     1  UNL1       -0.2731
     30 C           5.6763    2.5322   31.3345 C.3     1  UNL1        0.1108
     31 C           6.1841    1.1228   31.2585 C.3     1  UNL1        0.0939
     32 C           2.2392    4.4619   31.7957 C.3     1  UNL1        0.1523
     33 C           1.5762    4.8613   33.0805 C.3     1  UNL1        0.0310
     34 C           0.1076    5.0145   32.8161 C.3     1  UNL1        0.0237
     35 C          -0.1369    4.7098   31.3679 C.3     1  UNL1        0.0942
     36 N           1.1805    4.3683   30.7372 N.am    1  UNL1       -0.2682
     37 C           1.4006    3.9981   29.3003 C.2     1  UNL1        0.2671
     38 O           2.7824    3.6804   28.8109 O.2     1  UNL1       -0.2682
     39 C           0.2389    3.9458   28.3529 C.ar    1  UNL1        0.1346
     40 C          -0.2070    2.6311   27.7849 C.ar    1  UNL1        0.0238
     41 C          -1.3687    2.5787   26.8375 C.ar    1  UNL1        0.0032
     42 C          -2.0847    3.8410   26.4581 C.ar    1  UNL1        0.0177
     43 C          -3.2464    3.7886   25.5107 C.ar    1  UNL1        0.0015
     44 C          -3.9624    5.0510   25.1314 C.ar    1  UNL1        0.0001
     45 C          -3.5165    6.3657   25.6995 C.ar    1  UNL1        0.0015
     46 C          -2.3548    6.4181   26.6469 C.ar    1  UNL1        0.0191
     47 C          -1.6388    5.1558   27.0262 C.ar    1  UNL1        0.0814
     48 N          -0.4771    5.2082   27.9736 N.ar    1  UNL1       -0.2408
     49 C           8.7915   -7.2921   22.0914 C.1     1  UNL1       -0.0119
     50 C           8.4376   -6.6930   23.4202 C.1     1  UNL1       -0.0526
@<TRIPOS>BOND
     1    49    50    3
     2    50     1    1
     3     1     2    1
     4     1     3    1
     5     3     4    1
     6     5     4    1
     7     5     6    1
     8     6     7    1
     9     7     8    1
    10     9     8    1
    11     9    10    1
    12    10    11    1
    13    11    12    1
    14    11    13    1
    15    13    24    1
    16    24    25    1
    17    25    26    1
    18    26    27    1
    19    27    28   am
    20    28    29    2
    21    32    28    1
    22    32    33    1
    23    33    34    1
    24    34    35    1
    25    35    36    1
    26    36    37   am
    27    37    38    2
    28    37    39    1
    29    39    40   ar
    30    40    41   ar
    31    41    42   ar
    32    42    43   ar
    33    43    44   ar
    34    44    45   ar
    35    45    46   ar
    36    46    47   ar
    37    47    48   ar
    38    27    30    1
    39    30    31    1
    40    13    14    1
    41    14    15    1
    42    15    16    1
    43    15    17    1
    44    17    18    1
    45    18    19    1
    46    19    20    1
    47    20    21    1
    48    20     1    1
    49    20     5    1
    50    17     6    1
    51    15     9    1
    52    31    24    1
    53    36    32    1
    54    48    39   ar
    55    47    42   ar
    56     2    22    1
    57    12    23    1
