@<TRIPOS>MOLECULE
*****
 29 33 0 0 0
SMALL
GASTEIGER

@<TRIPOS>ATOM
      1 C          -2.4740    3.5505   25.9075 C.3     1  UNL1        0.0627
      2 C          -3.8631    3.8606   26.3809 C.3     1  UNL1        0.0107
      3 C          -4.9559    4.1130   25.3849 C.3     1  UNL1        0.0060
      4 C          -4.6596    4.0553   23.9156 C.3     1  UNL1        0.0343
      5 C          -3.2705    3.7453   23.4422 C.ar    1  UNL1        0.0237
      6 S          -2.6827    3.6214   22.0678 S.2     1  UNL1       -0.0561
      7 C          -1.2265    3.2923   22.2143 C.ar    1  UNL1        0.1629
      8 N          -0.9144    3.2129   23.6793 N.ar    1  UNL1       -0.2284
      9 C          -2.1777    3.4928   24.4382 C.ar    1  UNL1        0.0666
     10 C           0.8047    2.7931   28.8954 C.ar    1  UNL1       -0.0000
     11 C           0.4659    4.1980   28.4937 C.ar    1  UNL1       -0.0003
     12 C          -0.6270    4.4505   27.4978 C.ar    1  UNL1       -0.0039
     13 C          -1.3811    3.2980   26.9035 C.ar    1  UNL1       -0.0169
     14 C          -1.0423    1.8931   27.3051 C.ar    1  UNL1       -0.0039
     15 C           0.0506    1.6406   28.3010 C.ar    1  UNL1       -0.0003
     16 N          -0.2534    3.0800   21.0926 N.pl3   1  UNL1       -0.2927
     17 H          -0.1858    3.7426   20.3676 H       1  UNL1        0.1541
     18 C           0.6166    1.8583   21.0757 C.ar    1  UNL1        0.0497
     19 C           1.8827    1.8279   21.8796 C.ar    1  UNL1        0.0147
     20 C           2.7527    0.6061   21.8627 C.ar    1  UNL1        0.0013
     21 C           2.3567   -0.5853   21.0418 C.ar    1  UNL1        0.0002
     22 C           1.0907   -0.5549   20.2379 C.ar    1  UNL1        0.0013
     23 C           0.2206    0.6669   20.2549 C.ar    1  UNL1        0.0147
     24 C           3.2267   -1.8070   21.0249 C.ar    1  UNL1        0.0031
     25 C           3.3688   -2.6092   19.7654 C.ar    1  UNL1        0.0207
     26 C           4.2388   -3.8310   19.7484 C.ar    1  UNL1        0.0989
     27 N           4.9668   -4.2506   20.9910 N.ar    1  UNL1       -0.2423
     28 C           4.8248   -3.4484   22.2505 C.ar    1  UNL1        0.0989
     29 C           3.9547   -2.2266   22.2674 C.ar    1  UNL1        0.0207
@<TRIPOS>BOND
     1    10    11   ar
     2    11    12   ar
     3    12    13   ar
     4    13     1    1
     5     1     2    1
     6     2     3    1
     7     3     4    1
     8     4     5    1
     9     5     6   ar
    10     6     7   ar
    11     7    16    1
    12    16    18    1
    13    18    19   ar
    14    19    20   ar
    15    20    21   ar
    16    21    24    1
    17    24    25   ar
    18    25    26   ar
    19    26    27   ar
    20    27    28   ar
    21    28    29   ar
    22    21    22   ar
    23    22    23   ar
    24     7     8   ar
    25     8     9   ar
    26    13    14   ar
    27    14    15   ar
    28    15    10   ar
    29     9     1    1
    30     9     5   ar
    31    23    18   ar
    32    29    24   ar
    33    16    17    1
@<TRIPOS>MOLECULE
*****
 29 33 0 0 0
SMALL
GASTEIGER

@<TRIPOS>ATOM
      1 C         -12.1937   -6.0922   18.6377 C.3     1  UNL1        0.0627
      2 C         -10.9275   -6.8083   19.0036 C.3     1  UNL1        0.0107
      3 C          -9.6394   -6.0471   19.1103 C.3     1  UNL1        0.0060
      4 C          -9.6175   -4.5699   18.8511 C.3     1  UNL1        0.0343
      5 C         -10.8837   -3.8537   18.4852 C.ar    1  UNL1        0.0237
      6 S         -11.1689   -2.4142   18.1749 S.2     1  UNL1       -0.0561
      7 C         -12.6333   -2.2856   17.8765 C.ar    1  UNL1        0.1629
      8 N         -13.2532   -3.6457   18.0023 N.ar    1  UNL1       -0.2284
      9 C         -12.1718   -4.6149   18.3785 C.ar    1  UNL1        0.0666
     10 C         -16.0582   -8.3755   18.3177 C.ar    1  UNL1       -0.0000
     11 C         -14.8898   -8.7543   17.4567 C.ar    1  UNL1       -0.0003
     12 C         -13.6016   -7.9932   17.5634 C.ar    1  UNL1       -0.0039
     13 C         -13.4819   -6.8533   18.5310 C.ar    1  UNL1       -0.0169
     14 C         -14.6503   -6.4745   19.3920 C.ar    1  UNL1       -0.0039
     15 C         -15.9385   -7.2356   19.2854 C.ar    1  UNL1       -0.0003
     16 N         -13.3517   -1.0192   17.5156 N.pl3   1  UNL1       -0.2927
     17 H         -13.1277   -0.5468   16.6814 H       1  UNL1        0.1541
     18 C         -14.4114   -0.4726   18.4257 C.ar    1  UNL1        0.0497
     19 C         -15.2926   -1.4090   19.1982 C.ar    1  UNL1        0.0147
     20 C         -16.3523   -0.8624   20.1082 C.ar    1  UNL1        0.0013
     21 C         -16.5308    0.6206   20.2458 C.ar    1  UNL1        0.0002
     22 C         -15.6497    1.5570   19.4733 C.ar    1  UNL1        0.0013
     23 C         -14.5899    1.0103   18.5632 C.ar    1  UNL1        0.0147
     24 C         -17.5905    1.1672   21.1559 C.ar    1  UNL1        0.0031
     25 C         -19.0383    0.9057   20.8633 C.ar    1  UNL1        0.0207
     26 C         -20.0980    1.4523   21.7734 C.ar    1  UNL1        0.0989
     27 N         -19.7099    2.2604   22.9761 N.ar    1  UNL1       -0.2423
     28 C         -18.2622    2.5219   23.2687 C.ar    1  UNL1        0.0989
     29 C         -17.2025    1.9753   22.3585 C.ar    1  UNL1        0.0207
@<TRIPOS>BOND
     1    10    11   ar
     2    11    12   ar
     3    12    13   ar
     4    13     1    1
     5     1     2    1
     6     2     3    1
     7     3     4    1
     8     4     5    1
     9     5     6   ar
    10     6     7   ar
    11     7    16    1
    12    16    18    1
    13    18    19   ar
    14    19    20   ar
    15    20    21   ar
    16    21    24    1
    17    24    25   ar
    18    25    26   ar
    19    26    27   ar
    20    27    28   ar
    21    28    29   ar
    22    21    22   ar
    23    22    23   ar
    24     7     8   ar
    25     8     9   ar
    26    13    14   ar
    27    14    15   ar
    28    15    10   ar
    29     9     1    1
    30     9     5   ar
    31    23    18   ar
    32    29    24   ar
    33    16    17    1
@<TRIPOS>MOLECULE
*****
 29 33 0 0 0
SMALL
GASTEIGER

@<TRIPOS>ATOM
      1 C           3.5583   -1.6690   21.4182 C.3     1  UNL1        0.0627
      2 C           4.3119   -2.9106   21.0433 C.3     1  UNL1        0.0107
      3 C           5.0402   -3.6925   22.0959 C.3     1  UNL1        0.0060
      4 C           5.0149   -3.2328   23.5235 C.3     1  UNL1        0.0343
      5 C           4.2613   -1.9912   23.8985 C.ar    1  UNL1        0.0237
      6 S           4.0587   -1.2987   25.2135 S.2     1  UNL1       -0.0561
      7 C           3.2052   -0.0887   24.9735 C.ar    1  UNL1        0.1629
      8 N           2.8803   -0.0335   23.5102 N.ar    1  UNL1       -0.2284
      9 C           3.5331   -1.2094   22.8458 C.ar    1  UNL1        0.0666
     10 C           1.3732    0.6768   18.2601 C.ar    1  UNL1       -0.0000
     11 C           2.8061    0.2871   18.0479 C.ar    1  UNL1       -0.0003
     12 C           3.5345   -0.4949   19.1006 C.ar    1  UNL1       -0.0039
     13 C           2.8300   -0.8871   20.3655 C.ar    1  UNL1       -0.0169
     14 C           1.3971   -0.4973   20.5777 C.ar    1  UNL1       -0.0039
     15 C           0.6687    0.2846   19.5251 C.ar    1  UNL1       -0.0003
     16 N           2.7555    0.8935   26.0143 N.pl3   1  UNL1       -0.2927
     17 H           3.3526    1.1268   26.7615 H       1  UNL1        0.1541
     18 C           1.3963    1.5202   25.9165 C.ar    1  UNL1        0.0497
     19 C           0.3655    1.2442   26.9708 C.ar    1  UNL1        0.0147
     20 C          -0.9937    1.8709   26.8730 C.ar    1  UNL1        0.0013
     21 C          -1.3223    2.7737   25.7209 C.ar    1  UNL1        0.0002
     22 C          -0.2916    3.0496   24.6667 C.ar    1  UNL1        0.0013
     23 C           1.0677    2.4229   24.7645 C.ar    1  UNL1        0.0147
     24 C          -2.6816    3.4004   25.6231 C.ar    1  UNL1        0.0031
     25 C          -3.3774    3.8797   26.8625 C.ar    1  UNL1        0.0207
     26 C          -4.7366    4.5064   26.7648 C.ar    1  UNL1        0.0989
     27 N          -5.4002    4.6538   25.4275 N.ar    1  UNL1       -0.2423
     28 C          -4.7044    4.1744   24.1881 C.ar    1  UNL1        0.0989
     29 C          -3.3450    3.5477   24.2860 C.ar    1  UNL1        0.0207
@<TRIPOS>BOND
     1    10    11   ar
     2    11    12   ar
     3    12    13   ar
     4    13     1    1
     5     1     2    1
     6     2     3    1
     7     3     4    1
     8     4     5    1
     9     5     6   ar
    10     6     7   ar
    11     7    16    1
    12    16    18    1
    13    18    19   ar
    14    19    20   ar
    15    20    21   ar
    16    21    24    1
    17    24    25   ar
    18    25    26   ar
    19    26    27   ar
    20    27    28   ar
    21    28    29   ar
    22    21    22   ar
    23    22    23   ar
    24     7     8   ar
    25     8     9   ar
    26    13    14   ar
    27    14    15   ar
    28    15    10   ar
    29     9     1    1
    30     9     5   ar
    31    23    18   ar
    32    29    24   ar
    33    16    17    1
@<TRIPOS>MOLECULE
*****
 29 33 0 0 0
SMALL
GASTEIGER

@<TRIPOS>ATOM
      1 C          -4.4862    3.9414   22.3811 C.3     1  UNL1        0.0627
      2 C          -5.0487    4.0205   23.7694 C.3     1  UNL1        0.0107
      3 C          -4.1443    3.8598   24.9552 C.3     1  UNL1        0.0060
      4 C          -2.6776    3.6199   24.7528 C.3     1  UNL1        0.0343
      5 C          -2.1151    3.5407   23.3646 C.ar    1  UNL1        0.0237
      6 S          -0.7214    3.3159   22.8575 S.2     1  UNL1       -0.0561
      7 C          -0.7644    3.3376   21.3583 C.ar    1  UNL1        0.1629
      8 N          -2.1847    3.5759   20.9387 N.ar    1  UNL1       -0.2284
      9 C          -3.0194    3.7015   22.1787 C.ar    1  UNL1        0.0666
     10 C          -7.1992    4.4236   18.8233 C.ar    1  UNL1       -0.0000
     11 C          -6.1829    3.3207   18.8474 C.ar    1  UNL1       -0.0003
     12 C          -5.2785    3.1600   20.0334 C.ar    1  UNL1       -0.0039
     13 C          -5.3906    4.1021   21.1952 C.ar    1  UNL1       -0.0169
     14 C          -6.4069    5.2050   21.1711 C.ar    1  UNL1       -0.0039
     15 C          -7.3113    5.3658   19.9852 C.ar    1  UNL1       -0.0003
     16 N           0.4072    3.1534   20.4399 N.pl3   1  UNL1       -0.2927
     17 H           0.6778    3.8815   19.8350 H       1  UNL1        0.1541
     18 C           1.1666    1.8598   20.4431 C.ar    1  UNL1        0.0497
     19 C           0.4470    0.5671   20.1959 C.ar    1  UNL1        0.0147
     20 C           1.2063   -0.7265   20.1991 C.ar    1  UNL1        0.0013
     21 C           2.6853   -0.7274   20.4495 C.ar    1  UNL1        0.0002
     22 C           3.4049    0.5653   20.6967 C.ar    1  UNL1        0.0013
     23 C           2.6455    1.8589   20.6935 C.ar    1  UNL1        0.0147
     24 C           3.4446   -2.0209   20.4527 C.ar    1  UNL1        0.0031
     25 C           3.5506   -2.8315   19.1951 C.ar    1  UNL1        0.0207
     26 C           4.3099   -4.1251   19.1983 C.ar    1  UNL1        0.0989
     27 N           4.9633   -4.6081   20.4592 N.ar    1  UNL1       -0.2423
     28 C           4.8574   -3.7975   21.7168 C.ar    1  UNL1        0.0989
     29 C           4.0980   -2.5039   21.7136 C.ar    1  UNL1        0.0207
@<TRIPOS>BOND
     1    10    11   ar
     2    11    12   ar
     3    12    13   ar
     4    13     1    1
     5     1     2    1
     6     2     3    1
     7     3     4    1
     8     4     5    1
     9     5     6   ar
    10     6     7   ar
    11     7    16    1
    12    16    18    1
    13    18    19   ar
    14    19    20   ar
    15    20    21   ar
    16    21    24    1
    17    24    25   ar
    18    25    26   ar
    19    26    27   ar
    20    27    28   ar
    21    28    29   ar
    22    21    22   ar
    23    22    23   ar
    24     7     8   ar
    25     8     9   ar
    26    13    14   ar
    27    14    15   ar
    28    15    10   ar
    29     9     1    1
    30     9     5   ar
    31    23    18   ar
    32    29    24   ar
    33    16    17    1
@<TRIPOS>MOLECULE
*****
 29 33 0 0 0
SMALL
GASTEIGER

@<TRIPOS>ATOM
      1 C          -2.5522    3.5663   24.2291 C.3     1  UNL1        0.0627
      2 C          -3.9630    3.6922   24.7227 C.3     1  UNL1        0.0107
      3 C          -5.1030    3.6741   23.7481 C.3     1  UNL1        0.0060
      4 C          -4.8322    3.5300   22.2798 C.3     1  UNL1        0.0343
      5 C          -3.4214    3.4041   21.7861 C.ar    1  UNL1        0.0237
      6 S          -2.8503    3.2503   20.4077 S.2     1  UNL1       -0.0561
      7 C          -1.3573    3.1734   20.5304 C.ar    1  UNL1        0.1629
      8 N          -1.0056    3.2797   21.9847 N.ar    1  UNL1       -0.2284
      9 C          -2.2814    3.4223   22.7608 C.ar    1  UNL1        0.0666
     10 C           0.8681    3.6208   27.1531 C.ar    1  UNL1       -0.0000
     11 C          -0.1279    2.4996   27.1847 C.ar    1  UNL1       -0.0003
     12 C          -1.2680    2.4815   26.2100 C.ar    1  UNL1       -0.0039
     13 C          -1.4121    3.5845   25.2038 C.ar    1  UNL1       -0.0169
     14 C          -0.4161    4.7057   25.1721 C.ar    1  UNL1       -0.0039
     15 C           0.7239    4.7239   26.1467 C.ar    1  UNL1       -0.0003
     16 N          -0.3864    3.0175   19.3976 N.pl3   1  UNL1       -0.2927
     17 H          -0.3820    3.6693   18.6598 H       1  UNL1        0.1541
     18 C           0.5778    1.8685   19.3890 C.ar    1  UNL1        0.0497
     19 C           0.3129    0.6607   20.2380 C.ar    1  UNL1        0.0147
     20 C           1.2771   -0.4883   20.2293 C.ar    1  UNL1        0.0013
     21 C           2.5063   -0.4295   19.3717 C.ar    1  UNL1        0.0002
     22 C           2.7713    0.7784   18.5226 C.ar    1  UNL1        0.0013
     23 C           1.8070    1.9274   18.5313 C.ar    1  UNL1        0.0147
     24 C           3.4705   -1.5784   19.3630 C.ar    1  UNL1        0.0031
     25 C           4.3335   -1.8243   18.1610 C.ar    1  UNL1        0.0207
     26 C           5.2977   -2.9733   18.1523 C.ar    1  UNL1        0.0989
     27 N           5.3990   -3.8765   19.3458 N.ar    1  UNL1       -0.2423
     28 C           4.5360   -3.6305   20.5478 C.ar    1  UNL1        0.0989
     29 C           3.5718   -2.4815   20.5564 C.ar    1  UNL1        0.0207
@<TRIPOS>BOND
     1    10    11   ar
     2    11    12   ar
     3    12    13   ar
     4    13     1    1
     5     1     2    1
     6     2     3    1
     7     3     4    1
     8     4     5    1
     9     5     6   ar
    10     6     7   ar
    11     7    16    1
    12    16    18    1
    13    18    19   ar
    14    19    20   ar
    15    20    21   ar
    16    21    24    1
    17    24    25   ar
    18    25    26   ar
    19    26    27   ar
    20    27    28   ar
    21    28    29   ar
    22    21    22   ar
    23    22    23   ar
    24     7     8   ar
    25     8     9   ar
    26    13    14   ar
    27    14    15   ar
    28    15    10   ar
    29     9     1    1
    30     9     5   ar
    31    23    18   ar
    32    29    24   ar
    33    16    17    1
@<TRIPOS>MOLECULE
*****
 29 33 0 0 0
SMALL
GASTEIGER

@<TRIPOS>ATOM
      1 C         -11.6515  -17.2228   22.3833 C.3     1  UNL1        0.0627
      2 C         -12.9434  -16.9377   23.0902 C.3     1  UNL1        0.0107
      3 C         -13.3746  -17.7983   24.2405 C.3     1  UNL1        0.0060
      4 C         -12.5140  -18.9441   24.6839 C.3     1  UNL1        0.0343
      5 C         -11.2221  -19.2292   23.9770 C.ar    1  UNL1        0.0237
      6 S         -10.1735  -20.2808   24.1877 S.2     1  UNL1       -0.0561
      7 C          -9.0941  -20.0701   23.1676 C.ar    1  UNL1        0.1629
      8 N          -9.4757  -18.8882   22.3264 N.ar    1  UNL1       -0.2284
      9 C         -10.7909  -18.3685   22.8267 C.ar    1  UNL1        0.0666
     10 C         -10.3578  -14.6409   18.9321 C.ar    1  UNL1       -0.0000
     11 C          -9.5541  -14.6580   20.1985 C.ar    1  UNL1       -0.0003
     12 C          -9.9854  -15.5186   21.3489 C.ar    1  UNL1       -0.0039
     13 C         -11.2203  -16.3621   21.2329 C.ar    1  UNL1       -0.0169
     14 C         -12.0239  -16.3451   19.9664 C.ar    1  UNL1       -0.0039
     15 C         -11.5927  -15.4845   18.8161 C.ar    1  UNL1       -0.0003
     16 N          -7.8513  -20.8962   23.0155 N.pl3   1  UNL1       -0.2927
     17 H          -7.8133  -21.8030   23.3969 H       1  UNL1        0.1541
     18 C          -6.6666  -20.3407   22.2822 C.ar    1  UNL1        0.0497
     19 C          -6.1822  -21.0048   21.0275 C.ar    1  UNL1        0.0147
     20 C          -4.9974  -20.4493   20.2942 C.ar    1  UNL1        0.0013
     21 C          -4.2970  -19.2296   20.8157 C.ar    1  UNL1        0.0002
     22 C          -4.7814  -18.5655   22.0704 C.ar    1  UNL1        0.0013
     23 C          -5.9662  -19.1211   22.8036 C.ar    1  UNL1        0.0147
     24 C          -3.1122  -18.6741   20.0824 C.ar    1  UNL1        0.0031
     25 C          -3.2986  -18.0094   18.7507 C.ar    1  UNL1        0.0207
     26 C          -2.1138  -17.4539   18.0174 C.ar    1  UNL1        0.0989
     27 N          -0.7426  -17.5631   18.6158 N.ar    1  UNL1       -0.2423
     28 C          -0.5563  -18.2279   19.9475 C.ar    1  UNL1        0.0989
     29 C          -1.7412  -18.7834   20.6808 C.ar    1  UNL1        0.0207
@<TRIPOS>BOND
     1    10    11   ar
     2    11    12   ar
     3    12    13   ar
     4    13     1    1
     5     1     2    1
     6     2     3    1
     7     3     4    1
     8     4     5    1
     9     5     6   ar
    10     6     7   ar
    11     7    16    1
    12    16    18    1
    13    18    19   ar
    14    19    20   ar
    15    20    21   ar
    16    21    24    1
    17    24    25   ar
    18    25    26   ar
    19    26    27   ar
    20    27    28   ar
    21    28    29   ar
    22    21    22   ar
    23    22    23   ar
    24     7     8   ar
    25     8     9   ar
    26    13    14   ar
    27    14    15   ar
    28    15    10   ar
    29     9     1    1
    30     9     5   ar
    31    23    18   ar
    32    29    24   ar
    33    16    17    1
@<TRIPOS>MOLECULE
*****
 29 33 0 0 0
SMALL
GASTEIGER

@<TRIPOS>ATOM
      1 C         -16.9377    2.3065   19.5229 C.3     1  UNL1        0.0627
      2 C         -18.2692    2.4327   18.8439 C.3     1  UNL1        0.0107
      3 C         -18.4320    1.9820   17.4226 C.3     1  UNL1        0.0060
      4 C         -17.2632    1.4052   16.6801 C.3     1  UNL1        0.0343
      5 C         -15.9316    1.2791   17.3590 C.ar    1  UNL1        0.0237
      6 S         -14.6090    0.7538   16.8850 S.2     1  UNL1       -0.0561
      7 C         -13.6288    0.8799   18.0134 C.ar    1  UNL1        0.1629
      8 N         -14.3456    1.4830   19.1849 N.ar    1  UNL1       -0.2284
      9 C         -15.7689    1.7297   18.7804 C.ar    1  UNL1        0.0666
     10 C         -16.4492    3.6584   23.7872 C.ar    1  UNL1       -0.0000
     11 C         -17.2796    2.4490   23.4743 C.ar    1  UNL1       -0.0003
     12 C         -17.4424    1.9984   22.0528 C.ar    1  UNL1       -0.0039
     13 C         -16.7749    2.7571   20.9443 C.ar    1  UNL1       -0.0169
     14 C         -15.9445    3.9665   21.2573 C.ar    1  UNL1       -0.0039
     15 C         -15.7817    4.4172   22.6786 C.ar    1  UNL1       -0.0003
     16 N         -12.1852    0.4740   17.9767 N.pl3   1  UNL1       -0.2927
     17 H         -11.4811    1.1615   17.9481 H       1  UNL1        0.1541
     18 C         -11.8143   -0.9794   17.9837 C.ar    1  UNL1        0.0497
     19 C         -10.7433   -1.4846   17.0629 C.ar    1  UNL1        0.0147
     20 C         -10.3725   -2.9380   17.0699 C.ar    1  UNL1        0.0013
     21 C         -11.0726   -3.8862   17.9977 C.ar    1  UNL1        0.0002
     22 C         -12.1435   -3.3810   18.9185 C.ar    1  UNL1        0.0013
     23 C         -12.5144   -1.9276   18.9115 C.ar    1  UNL1        0.0147
     24 C         -10.7017   -5.3396   18.0047 C.ar    1  UNL1        0.0031
     25 C          -9.7018   -5.8538   18.9976 C.ar    1  UNL1        0.0207
     26 C          -9.3310   -7.3072   19.0046 C.ar    1  UNL1        0.0989
     27 N          -9.9600   -8.2465   18.0186 N.ar    1  UNL1       -0.2423
     28 C         -10.9598   -7.7323   17.0256 C.ar    1  UNL1        0.0989
     29 C         -11.3307   -6.2788   17.0187 C.ar    1  UNL1        0.0207
@<TRIPOS>BOND
     1    10    11   ar
     2    11    12   ar
     3    12    13   ar
     4    13     1    1
     5     1     2    1
     6     2     3    1
     7     3     4    1
     8     4     5    1
     9     5     6   ar
    10     6     7   ar
    11     7    16    1
    12    16    18    1
    13    18    19   ar
    14    19    20   ar
    15    20    21   ar
    16    21    24    1
    17    24    25   ar
    18    25    26   ar
    19    26    27   ar
    20    27    28   ar
    21    28    29   ar
    22    21    22   ar
    23    22    23   ar
    24     7     8   ar
    25     8     9   ar
    26    13    14   ar
    27    14    15   ar
    28    15    10   ar
    29     9     1    1
    30     9     5   ar
    31    23    18   ar
    32    29    24   ar
    33    16    17    1
@<TRIPOS>MOLECULE
*****
 29 33 0 0 0
SMALL
GASTEIGER

@<TRIPOS>ATOM
      1 C           3.6960   -2.1211   19.7503 C.3     1  UNL1        0.0627
      2 C           3.7346   -3.2816   18.8009 C.3     1  UNL1        0.0107
      3 C           4.7484   -4.3711   18.9889 C.3     1  UNL1        0.0060
      4 C           5.7236   -4.2999   20.1264 C.3     1  UNL1        0.0343
      5 C           5.6850   -3.1393   21.0759 C.ar    1  UNL1        0.0237
      6 S           6.5125   -2.7996   22.2800 S.2     1  UNL1       -0.0561
      7 C           6.0102   -1.5002   22.8361 C.ar    1  UNL1        0.1629
      8 N           4.8722   -1.0368   21.9757 N.ar    1  UNL1       -0.2284
      9 C           4.6712   -2.0499   20.8879 C.ar    1  UNL1        0.0666
     10 C           0.6547    1.1474   19.1862 C.ar    1  UNL1       -0.0000
     11 C           0.4822    0.1444   20.2882 C.ar    1  UNL1       -0.0003
     12 C           1.4960   -0.9451   20.4762 C.ar    1  UNL1       -0.0039
     13 C           2.6822   -1.0316   19.5623 C.ar    1  UNL1       -0.0169
     14 C           2.8547   -0.0287   18.4603 C.ar    1  UNL1       -0.0039
     15 C           1.8410    1.0608   18.2723 C.ar    1  UNL1       -0.0003
     16 N           6.5509   -0.7891   24.0411 N.pl3   1  UNL1       -0.2927
     17 H           6.8839    0.1339   23.9598 H       1  UNL1        0.1541
     18 C           6.5844   -1.4841   25.3699 C.ar    1  UNL1        0.0497
     19 C           5.3408   -1.5672   26.2044 C.ar    1  UNL1        0.0147
     20 C           5.3743   -2.2623   27.5332 C.ar    1  UNL1        0.0013
     21 C           6.6515   -2.8742   28.0276 C.ar    1  UNL1        0.0002
     22 C           7.8952   -2.7910   27.1931 C.ar    1  UNL1        0.0013
     23 C           7.8616   -2.0960   25.8642 C.ar    1  UNL1        0.0147
     24 C           6.6850   -3.5692   29.3564 C.ar    1  UNL1        0.0031
     25 C           6.4652   -2.7874   30.6175 C.ar    1  UNL1        0.0207
     26 C           6.4987   -3.4824   31.9463 C.ar    1  UNL1        0.0989
     27 N           6.7521   -4.9594   32.0140 N.ar    1  UNL1       -0.2423
     28 C           6.9719   -5.7412   30.7529 C.ar    1  UNL1        0.0989
     29 C           6.9384   -5.0461   29.4241 C.ar    1  UNL1        0.0207
@<TRIPOS>BOND
     1    10    11   ar
     2    11    12   ar
     3    12    13   ar
     4    13     1    1
     5     1     2    1
     6     2     3    1
     7     3     4    1
     8     4     5    1
     9     5     6   ar
    10     6     7   ar
    11     7    16    1
    12    16    18    1
    13    18    19   ar
    14    19    20   ar
    15    20    21   ar
    16    21    24    1
    17    24    25   ar
    18    25    26   ar
    19    26    27   ar
    20    27    28   ar
    21    28    29   ar
    22    21    22   ar
    23    22    23   ar
    24     7     8   ar
    25     8     9   ar
    26    13    14   ar
    27    14    15   ar
    28    15    10   ar
    29     9     1    1
    30     9     5   ar
    31    23    18   ar
    32    29    24   ar
    33    16    17    1
@<TRIPOS>MOLECULE
*****
 29 33 0 0 0
SMALL
GASTEIGER

@<TRIPOS>ATOM
      1 C          -0.4108    3.5320   26.7968 C.3     1  UNL1        0.0627
      2 C          -0.5638    4.8124   27.5630 C.3     1  UNL1        0.0107
      3 C          -0.8092    6.0990   26.8321 C.3     1  UNL1        0.0060
      4 C          -0.9016    6.1053   25.3349 C.3     1  UNL1        0.0343
      5 C          -0.7486    4.8249   24.5687 C.ar    1  UNL1        0.0237
      6 S          -0.7912    4.5228   23.1001 S.2     1  UNL1       -0.0561
      7 C          -0.5721    3.0494   22.9233 C.ar    1  UNL1        0.1629
      8 N          -0.3941    2.4409   24.2827 N.ar    1  UNL1       -0.2284
      9 C          -0.5032    3.5383   25.2996 C.ar    1  UNL1        0.0666
     10 C           0.3255   -0.3281   28.9895 C.ar    1  UNL1       -0.0000
     11 C          -1.0782    0.1122   28.6968 C.ar    1  UNL1       -0.0003
     12 C          -1.3236    1.3989   27.9659 C.ar    1  UNL1       -0.0039
     13 C          -0.1654    2.2453   27.5277 C.ar    1  UNL1       -0.0169
     14 C           1.2384    1.8050   27.8203 C.ar    1  UNL1       -0.0039
     15 C           1.4838    0.5183   28.5512 C.ar    1  UNL1       -0.0003
     16 N          -0.5372    2.3138   21.6165 N.pl3   1  UNL1       -0.2927
     17 H          -1.1773    2.5439   20.9048 H       1  UNL1        0.1541
     18 C           0.4731    1.2276   21.3941 C.ar    1  UNL1        0.0497
     19 C           0.2726    0.2314   20.2907 C.ar    1  UNL1        0.0147
     20 C           1.2829   -0.8548   20.0683 C.ar    1  UNL1        0.0013
     21 C           2.4937   -0.9448   20.9492 C.ar    1  UNL1        0.0002
     22 C           2.6941    0.0514   22.0526 C.ar    1  UNL1        0.0013
     23 C           1.6838    1.1377   22.2750 C.ar    1  UNL1        0.0147
     24 C           3.5039   -2.0310   20.7268 C.ar    1  UNL1        0.0031
     25 C           4.3303   -2.5330   21.8736 C.ar    1  UNL1        0.0207
     26 C           5.3405   -3.6192   21.6512 C.ar    1  UNL1        0.0989
     27 N           5.5245   -4.2034   20.2819 N.ar    1  UNL1       -0.2423
     28 C           4.6982   -3.7014   19.1351 C.ar    1  UNL1        0.0989
     29 C           3.6879   -2.6152   19.3576 C.ar    1  UNL1        0.0207
@<TRIPOS>BOND
     1    10    11   ar
     2    11    12   ar
     3    12    13   ar
     4    13     1    1
     5     1     2    1
     6     2     3    1
     7     3     4    1
     8     4     5    1
     9     5     6   ar
    10     6     7   ar
    11     7    16    1
    12    16    18    1
    13    18    19   ar
    14    19    20   ar
    15    20    21   ar
    16    21    24    1
    17    24    25   ar
    18    25    26   ar
    19    26    27   ar
    20    27    28   ar
    21    28    29   ar
    22    21    22   ar
    23    22    23   ar
    24     7     8   ar
    25     8     9   ar
    26    13    14   ar
    27    14    15   ar
    28    15    10   ar
    29     9     1    1
    30     9     5   ar
    31    23    18   ar
    32    29    24   ar
    33    16    17    1
