@<TRIPOS>MOLECULE
*****
 43 47 0 0 0
SMALL
GASTEIGER

@<TRIPOS>ATOM
      1 C           0.0997    3.0175   20.5412 C.ar    1  UNL1        0.0611
      2 C          -0.9741    3.9721   20.9723 C.ar    1  UNL1        0.1037
      3 N          -1.1721    3.8101   22.4503 N.ar    1  UNL1       -0.2269
      4 C          -0.2207    2.7555   22.9327 C.ar    1  UNL1        0.1407
      5 N           0.0314    2.1780   24.2939 N.ar    1  UNL1       -0.3374
      6 C           1.0696    1.1106   24.4751 C.ar    1  UNL1        0.0734
      7 C           1.8556    0.6208   23.2952 C.ar    1  UNL1        0.0171
      8 C           1.6035    1.1983   21.9340 C.ar    1  UNL1        0.0046
      9 C           0.5653    2.2657   21.7528 C.ar    1  UNL1        0.0386
     10 H          -0.4844    2.4995   25.0683 H       1  UNL1        0.1674
     11 C           2.8938   -0.4467   23.4765 C.ar    1  UNL1        0.0015
     12 C           3.5670   -0.6201   24.8057 C.ar    1  UNL1        0.0014
     13 C           4.6052   -1.6875   24.9870 C.ar    1  UNL1        0.0199
     14 C           4.9701   -2.5815   23.8391 C.ar    1  UNL1        0.1222
     15 C           4.2968   -2.4081   22.5099 C.ar    1  UNL1        0.0199
     16 C           3.2587   -1.3407   22.3287 C.ar    1  UNL1        0.0014
     17 S           6.0083   -3.6489   24.0204 S.O2    1  UNL1        0.0634
     18 O           5.7662   -4.1225   22.6178 O.2     1  UNL1       -0.1528
     19 O           6.2503   -3.1753   25.4229 O.2     1  UNL1       -0.1528
     20 N           7.0464   -4.7163   24.2016 N.3     1  UNL1       -0.1504
     21 C           7.9090   -5.1277   23.0454 C.3     1  UNL1        0.1279
     22 C           8.9471   -6.1951   23.2267 C.3     1  UNL1        0.1613
     23 O           9.1227   -6.8512   24.5641 O.3     1  UNL1       -0.3507
     24 C           8.2602   -6.4398   25.7203 C.3     1  UNL1        0.1613
     25 C           7.2220   -5.3724   25.5391 C.3     1  UNL1        0.1279
     26 C           0.6171    2.8451   19.1438 C.2     1  UNL1        0.2015
     27 O          -0.2698    3.1486   17.9729 O.2     1  UNL1       -0.2864
     28 C           3.6715    0.5620   18.0446 C.ar    1  UNL1        0.0920
     29 C           4.8301    1.4171   18.4646 C.ar    1  UNL1        0.0204
     30 C           4.5844    2.7482   19.1110 C.ar    1  UNL1        0.0312
     31 C           3.1801    3.2242   19.3374 C.ar    1  UNL1        0.1454
     32 F           2.9344    4.5553   19.9838 F       1  UNL1       -0.2040
     33 C           2.0215    2.3691   18.9174 C.ar    1  UNL1        0.0951
     34 C           2.2672    1.0380   18.2711 C.ar    1  UNL1        0.1598
     35 F           1.1085    0.1829   17.8511 F       1  UNL1       -0.2026
     36 N           3.9172   -0.7691   17.3983 N.pl3   1  UNL1       -0.2166
     37 H           3.7164   -0.8970   16.4430 H       1  UNL1        0.1734
     38 S           4.4689   -1.9053   18.2074 S.O2    1  UNL1        0.0540
     39 O           5.7224   -1.8832   17.3839 O.2     1  UNL1       -0.1545
     40 O           3.2154   -1.9275   19.0309 O.2     1  UNL1       -0.1545
     41 C           5.0204   -3.0415   19.0166 C.3     1  UNL1        0.1724
     42 C           3.7237   -5.1749   19.7359 C.3     1  UNL1        0.0019
     43 C           4.5745   -4.4464   18.7382 C.3     1  UNL1        0.0273
@<TRIPOS>BOND
     1    42    43    1
     2    43    41    1
     3    41    38    1
     4    38    39    2
     5    38    40    2
     6    38    36    1
     7    36    28    1
     8    28    29   ar
     9    29    30   ar
    10    30    31   ar
    11    31    32    1
    12    31    33   ar
    13    33    26    1
    14    26    27    2
    15    26     1    1
    16     1     2   ar
    17     2     3   ar
    18     3     4   ar
    19     4     5   ar
    20     5     6   ar
    21     6     7   ar
    22     7    11    1
    23    11    12   ar
    24    12    13   ar
    25    13    14   ar
    26    14    17    1
    27    17    18    2
    28    17    19    2
    29    17    20    1
    30    20    21    1
    31    21    22    1
    32    22    23    1
    33    23    24    1
    34    24    25    1
    35    14    15   ar
    36    15    16   ar
    37     7     8   ar
    38     8     9   ar
    39    33    34   ar
    40    34    35    1
    41    34    28   ar
    42     9     1   ar
    43     9     4    1
    44    16    11   ar
    45    25    20    1
    46    36    37    1
    47     5    10    1
@<TRIPOS>MOLECULE
*****
 43 47 0 0 0
SMALL
GASTEIGER

@<TRIPOS>ATOM
      1 C           5.3563   -1.3391   31.1883 C.ar    1  UNL1        0.0611
      2 C           4.5757   -1.0308   32.4315 C.ar    1  UNL1        0.1037
      3 N           3.1983   -0.6027   32.0196 N.ar    1  UNL1       -0.2269
      4 C           3.1277   -0.6465   30.5219 C.ar    1  UNL1        0.1407
      5 N           2.0213   -0.3307   29.5596 N.ar    1  UNL1       -0.3374
      6 C           2.2486   -0.4701   28.0835 C.ar    1  UNL1        0.0734
      7 C           3.5823   -0.9252   27.5697 C.ar    1  UNL1        0.0171
      8 C           4.6888   -1.2410   28.5320 C.ar    1  UNL1        0.0046
      9 C           4.4615   -1.1016   30.0081 C.ar    1  UNL1        0.0386
     10 H           1.1459   -0.0320   29.8968 H       1  UNL1        0.1674
     11 C           3.8096   -1.0646   26.0936 C.ar    1  UNL1        0.0015
     12 C           2.9475   -0.3077   25.1273 C.ar    1  UNL1        0.0014
     13 C           3.1747   -0.4471   23.6511 C.ar    1  UNL1        0.0199
     14 C           4.2642   -1.3433   23.1413 C.ar    1  UNL1        0.1222
     15 C           5.1263   -2.1002   24.1077 C.ar    1  UNL1        0.0199
     16 C           4.8990   -1.9608   25.5838 C.ar    1  UNL1        0.0014
     17 S           4.4915   -1.4827   21.6652 S.O2    1  UNL1        0.0634
     18 O           3.0551   -1.1331   21.4110 O.2     1  UNL1       -0.1528
     19 O           5.9278   -1.8323   21.9194 O.2     1  UNL1       -0.1528
     20 N           4.7188   -1.6221   20.1892 N.3     1  UNL1       -0.1504
     21 C           3.6971   -1.1039   19.2207 C.3     1  UNL1        0.1279
     22 C           3.9244   -1.2433   17.7446 C.3     1  UNL1        0.1613
     23 O           5.1733   -1.9008   17.2369 O.3     1  UNL1       -0.3507
     24 C           6.1950   -2.4190   18.2052 C.3     1  UNL1        0.1613
     25 C           5.9677   -2.2796   19.6814 C.3     1  UNL1        0.1279
     26 C           6.7816   -1.8035   31.1347 C.2     1  UNL1        0.2015
     27 O           7.8869   -0.8828   31.5595 O.2     1  UNL1       -0.2864
     28 C           8.0746   -4.7737   28.8419 C.ar    1  UNL1        0.0920
     29 C           7.7418   -5.9589   29.6990 C.ar    1  UNL1        0.0204
     30 C           7.0889   -5.7589   31.0346 C.ar    1  UNL1        0.0312
     31 C           6.7689   -4.3739   31.5132 C.ar    1  UNL1        0.1454
     32 F           6.1161   -4.1739   32.8488 F       1  UNL1       -0.2040
     33 C           7.1017   -3.1887   30.6561 C.ar    1  UNL1        0.0951
     34 C           7.7545   -3.3886   29.3205 C.ar    1  UNL1        0.1598
     35 F           8.0873   -2.2033   28.4635 F       1  UNL1       -0.2026
     36 N           8.7274   -4.9736   27.5063 N.pl3   1  UNL1       -0.2166
     37 H           9.5090   -4.4307   27.2542 H       1  UNL1        0.1734
     38 S           8.1893   -6.0007   26.5548 S.O2    1  UNL1        0.0540
     39 O           9.3867   -6.8667   26.8124 O.2     1  UNL1       -0.1545
     40 O           6.9919   -5.1348   26.2971 O.2     1  UNL1       -0.1545
     41 C           7.6512   -7.0278   25.6032 C.3     1  UNL1        0.1724
     42 C           8.8159   -7.1984   23.2870 C.3     1  UNL1        0.0019
     43 C           8.5797   -7.7409   24.6654 C.3     1  UNL1        0.0273
@<TRIPOS>BOND
     1    42    43    1
     2    43    41    1
     3    41    38    1
     4    38    39    2
     5    38    40    2
     6    38    36    1
     7    36    28    1
     8    28    29   ar
     9    29    30   ar
    10    30    31   ar
    11    31    32    1
    12    31    33   ar
    13    33    26    1
    14    26    27    2
    15    26     1    1
    16     1     2   ar
    17     2     3   ar
    18     3     4   ar
    19     4     5   ar
    20     5     6   ar
    21     6     7   ar
    22     7    11    1
    23    11    12   ar
    24    12    13   ar
    25    13    14   ar
    26    14    17    1
    27    17    18    2
    28    17    19    2
    29    17    20    1
    30    20    21    1
    31    21    22    1
    32    22    23    1
    33    23    24    1
    34    24    25    1
    35    14    15   ar
    36    15    16   ar
    37     7     8   ar
    38     8     9   ar
    39    33    34   ar
    40    34    35    1
    41    34    28   ar
    42     9     1   ar
    43     9     4    1
    44    16    11   ar
    45    25    20    1
    46    36    37    1
    47     5    10    1
@<TRIPOS>MOLECULE
*****
 43 47 0 0 0
SMALL
GASTEIGER

@<TRIPOS>ATOM
      1 C           4.8381   -2.8791   22.8746 C.ar    1  UNL1        0.0611
      2 C           5.6982   -3.2659   24.0410 C.ar    1  UNL1        0.1037
      3 N           5.3834   -2.3382   25.1769 N.ar    1  UNL1       -0.2269
      4 C           4.3287   -1.3780   24.7125 C.ar    1  UNL1        0.1407
      5 N           3.6316   -0.2425   25.4015 N.ar    1  UNL1       -0.3374
      6 C           2.5976    0.5587   24.6675 C.ar    1  UNL1        0.0734
      7 C           2.2605    0.2244   23.2446 C.ar    1  UNL1        0.0171
      8 C           2.9576   -0.9111   22.5557 C.ar    1  UNL1        0.0046
      9 C           3.9917   -1.7123   23.2896 C.ar    1  UNL1        0.0386
     10 H           3.8528   -0.0231   26.3354 H       1  UNL1        0.1674
     11 C           1.2264    1.0257   22.5107 C.ar    1  UNL1        0.0015
     12 C           0.5513    2.1803   23.1896 C.ar    1  UNL1        0.0014
     13 C          -0.4828    2.9816   22.4556 C.ar    1  UNL1        0.0199
     14 C          -0.8418    2.6281   21.0428 C.ar    1  UNL1        0.1222
     15 C          -0.1666    1.4734   20.3638 C.ar    1  UNL1        0.0199
     16 C           0.8675    0.6722   21.0978 C.ar    1  UNL1        0.0014
     17 S          -1.8758    3.4294   20.3088 S.O2    1  UNL1        0.0634
     18 O          -2.9173    2.9872   21.2935 O.2     1  UNL1       -0.1528
     19 O          -0.8343    3.8715   19.3241 O.2     1  UNL1       -0.1528
     20 N          -2.9099    4.2306   19.5749 N.3     1  UNL1       -0.1504
     21 C          -4.1433    4.6976   20.2896 C.3     1  UNL1        0.1279
     22 C          -5.1774    5.4988   19.5556 C.3     1  UNL1        0.1613
     23 O          -4.9781    5.8330   18.1070 O.3     1  UNL1       -0.3507
     24 C          -3.7448    5.3661   17.3923 C.3     1  UNL1        0.1613
     25 C          -2.7106    4.5648   18.1262 C.3     1  UNL1        0.1279
     26 C           4.8264   -3.5426   21.5294 C.2     1  UNL1        0.2015
     27 O           4.2064   -4.8987   21.3672 O.2     1  UNL1       -0.2864
     28 C           5.1906   -1.2987   18.2762 C.ar    1  UNL1        0.0920
     29 C           6.6517   -1.4643   17.9798 C.ar    1  UNL1        0.0204
     30 C           7.5043   -2.3226   18.8665 C.ar    1  UNL1        0.0312
     31 C           6.8960   -3.0154   20.0497 C.ar    1  UNL1        0.1454
     32 F           7.7486   -3.8737   20.9364 F       1  UNL1       -0.2040
     33 C           5.4349   -2.8498   20.3461 C.ar    1  UNL1        0.0951
     34 C           4.5822   -1.9915   19.4594 C.ar    1  UNL1        0.1598
     35 F           3.1212   -1.8260   19.7559 F       1  UNL1       -0.2026
     36 N           4.3380   -0.4404   17.3895 N.pl3   1  UNL1       -0.2166
     37 H           4.1374   -0.7294   16.4699 H       1  UNL1        0.1734
     38 S           3.7908    0.8581   17.9038 S.O2    1  UNL1        0.0540
     39 O           2.4014    0.2959   17.8449 O.2     1  UNL1       -0.1545
     40 O           5.1802    1.4202   17.9626 O.2     1  UNL1       -0.1545
     41 C           3.2438    2.1566   18.4181 C.3     1  UNL1        0.1724
     42 C           2.8364    3.7790   20.4061 C.3     1  UNL1        0.0019
     43 C           3.5485    2.5963   19.8194 C.3     1  UNL1        0.0273
@<TRIPOS>BOND
     1    42    43    1
     2    43    41    1
     3    41    38    1
     4    38    39    2
     5    38    40    2
     6    38    36    1
     7    36    28    1
     8    28    29   ar
     9    29    30   ar
    10    30    31   ar
    11    31    32    1
    12    31    33   ar
    13    33    26    1
    14    26    27    2
    15    26     1    1
    16     1     2   ar
    17     2     3   ar
    18     3     4   ar
    19     4     5   ar
    20     5     6   ar
    21     6     7   ar
    22     7    11    1
    23    11    12   ar
    24    12    13   ar
    25    13    14   ar
    26    14    17    1
    27    17    18    2
    28    17    19    2
    29    17    20    1
    30    20    21    1
    31    21    22    1
    32    22    23    1
    33    23    24    1
    34    24    25    1
    35    14    15   ar
    36    15    16   ar
    37     7     8   ar
    38     8     9   ar
    39    33    34   ar
    40    34    35    1
    41    34    28   ar
    42     9     1   ar
    43     9     4    1
    44    16    11   ar
    45    25    20    1
    46    36    37    1
    47     5    10    1
@<TRIPOS>MOLECULE
*****
 43 47 0 0 0
SMALL
GASTEIGER

@<TRIPOS>ATOM
      1 C           4.9855   -3.3067   22.5619 C.ar    1  UNL1        0.0611
      2 C           6.0342   -3.9055   23.4517 C.ar    1  UNL1        0.1037
      3 N           6.0276   -3.1512   24.7482 N.ar    1  UNL1       -0.2269
      4 C           4.9748   -2.0863   24.6597 C.ar    1  UNL1        0.1407
      5 N           4.5195   -1.0416   25.6350 N.ar    1  UNL1       -0.3374
      6 C           3.4201   -0.0930   25.2589 C.ar    1  UNL1        0.0734
      7 C           2.7761   -0.1891   23.9077 C.ar    1  UNL1        0.0171
      8 C           3.2314   -1.2338   22.9324 C.ar    1  UNL1        0.0046
      9 C           4.3308   -2.1824   23.3084 C.ar    1  UNL1        0.0386
     10 H           4.9422   -0.9785   26.5219 H       1  UNL1        0.1674
     11 C           1.6767    0.7596   23.5316 C.ar    1  UNL1        0.0015
     12 C           1.2636    0.8979   22.0963 C.ar    1  UNL1        0.0014
     13 C           0.1641    1.8466   21.7203 C.ar    1  UNL1        0.0199
     14 C          -0.5222    2.6569   22.7797 C.ar    1  UNL1        0.1222
     15 C          -0.1090    2.5186   24.2151 C.ar    1  UNL1        0.0199
     16 C           0.9904    1.5700   24.5910 C.ar    1  UNL1        0.0014
     17 S          -1.6215    3.6056   22.4037 S.O2    1  UNL1        0.0634
     18 O          -1.3191    4.4363   23.6155 O.2     1  UNL1       -0.1528
     19 O          -1.9240    2.7749   21.1920 O.2     1  UNL1       -0.1528
     20 N          -2.7209    4.5542   22.0278 N.3     1  UNL1       -0.1504
     21 C          -2.5946    5.3974   20.7936 C.3     1  UNL1        0.1279
     22 C          -3.6940    6.3461   20.4177 C.3     1  UNL1        0.1613
     23 O          -4.9197    6.4516   21.2759 O.3     1  UNL1       -0.3507
     24 C          -5.0461    5.6085   22.5100 C.3     1  UNL1        0.1613
     25 C          -3.9466    4.6598   22.8860 C.3     1  UNL1        0.1279
     26 C           4.6503   -3.7538   21.1698 C.2     1  UNL1        0.2015
     27 O           3.9621   -5.0681   20.9494 O.2     1  UNL1       -0.2864
     28 C           4.3114   -1.1453   18.1980 C.ar    1  UNL1        0.0920
     29 C           5.7096   -1.1514   17.6546 C.ar    1  UNL1        0.0204
     30 C           6.7546   -2.0250   18.2829 C.ar    1  UNL1        0.0312
     31 C           6.4016   -2.8925   19.4546 C.ar    1  UNL1        0.1454
     32 F           7.4466   -3.7660   20.0829 F       1  UNL1       -0.2040
     33 C           5.0034   -2.8863   19.9980 C.ar    1  UNL1        0.0951
     34 C           3.9584   -2.0127   19.3697 C.ar    1  UNL1        0.1598
     35 F           2.5603   -2.0066   19.9132 F       1  UNL1       -0.2026
     36 N           3.2664   -0.2717   17.5697 N.pl3   1  UNL1       -0.2166
     37 H           2.8484   -0.5383   16.7191 H       1  UNL1        0.1734
     38 S           2.8583    1.0080   18.2373 S.O2    1  UNL1        0.0540
     39 O           1.4563    0.4916   18.3702 O.2     1  UNL1       -0.1545
     40 O           4.2603    1.5245   18.1044 O.2     1  UNL1       -0.1545
     41 C           2.4503    2.2878   18.9049 C.3     1  UNL1        0.1724
     42 C           0.6834    4.1831   19.0951 C.3     1  UNL1        0.0019
     43 C           1.4178    3.1700   18.2679 C.3     1  UNL1        0.0273
@<TRIPOS>BOND
     1    42    43    1
     2    43    41    1
     3    41    38    1
     4    38    39    2
     5    38    40    2
     6    38    36    1
     7    36    28    1
     8    28    29   ar
     9    29    30   ar
    10    30    31   ar
    11    31    32    1
    12    31    33   ar
    13    33    26    1
    14    26    27    2
    15    26     1    1
    16     1     2   ar
    17     2     3   ar
    18     3     4   ar
    19     4     5   ar
    20     5     6   ar
    21     6     7   ar
    22     7    11    1
    23    11    12   ar
    24    12    13   ar
    25    13    14   ar
    26    14    17    1
    27    17    18    2
    28    17    19    2
    29    17    20    1
    30    20    21    1
    31    21    22    1
    32    22    23    1
    33    23    24    1
    34    24    25    1
    35    14    15   ar
    36    15    16   ar
    37     7     8   ar
    38     8     9   ar
    39    33    34   ar
    40    34    35    1
    41    34    28   ar
    42     9     1   ar
    43     9     4    1
    44    16    11   ar
    45    25    20    1
    46    36    37    1
    47     5    10    1
@<TRIPOS>MOLECULE
*****
 43 47 0 0 0
SMALL
GASTEIGER

@<TRIPOS>ATOM
      1 C           4.5198   -2.6053   21.3269 C.ar    1  UNL1        0.0611
      2 C           5.7310   -3.4783   21.4717 C.ar    1  UNL1        0.1037
      3 N           6.2030   -3.3841   22.8924 N.ar    1  UNL1       -0.2269
      4 C           5.2835   -2.4530   23.6256 C.ar    1  UNL1        0.1407
      5 N           5.2591   -1.9813   25.0493 N.ar    1  UNL1       -0.3374
      6 C           4.1945   -1.0282   25.5054 C.ar    1  UNL1        0.0734
      7 C           3.1542   -0.5469   24.5378 C.ar    1  UNL1        0.0171
      8 C           3.1786   -1.0186   23.1142 C.ar    1  UNL1        0.0046
      9 C           4.2432   -1.9717   22.6581 C.ar    1  UNL1        0.0386
     10 H           5.9419   -2.2972   25.6843 H       1  UNL1        0.1674
     11 C           2.0895    0.4063   24.9940 C.ar    1  UNL1        0.0015
     12 C           2.0389    0.8439   26.4278 C.ar    1  UNL1        0.0014
     13 C           0.9742    1.7970   26.8840 C.ar    1  UNL1        0.0199
     14 C          -0.0399    2.3125   25.9063 C.ar    1  UNL1        0.1222
     15 C           0.0107    1.8748   24.4724 C.ar    1  UNL1        0.0199
     16 C           1.0754    0.9217   24.0163 C.ar    1  UNL1        0.0014
     17 S          -1.1045    3.2656   26.3624 S.O2    1  UNL1        0.0634
     18 O          -0.2509    3.6598   27.5311 O.2     1  UNL1       -0.1528
     19 O          -1.9582    2.8713   25.1938 O.2     1  UNL1       -0.1528
     20 N          -2.1692    4.2186   26.8185 N.3     1  UNL1       -0.1504
     21 C          -1.7879    5.4947   27.5087 C.3     1  UNL1        0.1279
     22 C          -2.8525    6.4478   27.9648 C.3     1  UNL1        0.1613
     23 O          -4.2986    6.1249   27.7308 O.3     1  UNL1       -0.3507
     24 C          -4.6799    4.8489   27.0406 C.3     1  UNL1        0.1613
     25 C          -3.6152    3.8957   26.5845 C.3     1  UNL1        0.1279
     26 C           3.7247   -2.4018   20.0714 C.2     1  UNL1        0.2015
     27 O           3.1294   -3.5811   19.3611 O.2     1  UNL1       -0.2864
     28 C           1.9515    0.9661   18.9472 C.ar    1  UNL1        0.0920
     29 C           3.1254    1.7474   18.4356 C.ar    1  UNL1        0.0204
     30 C           4.4990    1.1456   18.4693 C.ar    1  UNL1        0.0312
     31 C           4.6988   -0.2374   19.0145 C.ar    1  UNL1        0.1454
     32 F           6.0724   -0.8391   19.0482 F       1  UNL1       -0.2040
     33 C           3.5249   -1.0186   19.5261 C.ar    1  UNL1        0.0951
     34 C           2.1514   -0.4169   19.4924 C.ar    1  UNL1        0.1598
     35 F           0.9775   -1.1982   20.0040 F       1  UNL1       -0.2026
     36 N           0.5780    1.5679   18.9135 N.pl3   1  UNL1       -0.2166
     37 H          -0.0402    1.3428   18.1810 H       1  UNL1        0.1734
     38 S           0.1462    2.5125   19.9957 S.O2    1  UNL1        0.0540
     39 O          -0.5035    1.3762   20.7283 O.2     1  UNL1       -0.1545
     40 O           0.7960    3.6487   19.2632 O.2     1  UNL1       -0.1545
     41 C          -0.2854    3.4571   21.0780 C.3     1  UNL1        0.1724
     42 C          -2.3307    4.6353   22.1639 C.3     1  UNL1        0.0019
     43 C          -1.6871    3.3992   21.6090 C.3     1  UNL1        0.0273
@<TRIPOS>BOND
     1    42    43    1
     2    43    41    1
     3    41    38    1
     4    38    39    2
     5    38    40    2
     6    38    36    1
     7    36    28    1
     8    28    29   ar
     9    29    30   ar
    10    30    31   ar
    11    31    32    1
    12    31    33   ar
    13    33    26    1
    14    26    27    2
    15    26     1    1
    16     1     2   ar
    17     2     3   ar
    18     3     4   ar
    19     4     5   ar
    20     5     6   ar
    21     6     7   ar
    22     7    11    1
    23    11    12   ar
    24    12    13   ar
    25    13    14   ar
    26    14    17    1
    27    17    18    2
    28    17    19    2
    29    17    20    1
    30    20    21    1
    31    21    22    1
    32    22    23    1
    33    23    24    1
    34    24    25    1
    35    14    15   ar
    36    15    16   ar
    37     7     8   ar
    38     8     9   ar
    39    33    34   ar
    40    34    35    1
    41    34    28   ar
    42     9     1   ar
    43     9     4    1
    44    16    11   ar
    45    25    20    1
    46    36    37    1
    47     5    10    1
@<TRIPOS>MOLECULE
*****
 43 47 0 0 0
SMALL
GASTEIGER

@<TRIPOS>ATOM
      1 C           7.6235   -3.6769   27.4355 C.ar    1  UNL1        0.0611
      2 C           8.0390   -4.9901   26.8414 C.ar    1  UNL1        0.1037
      3 N           7.9836   -6.0268   27.9241 N.ar    1  UNL1       -0.2269
      4 C           7.5338   -5.3544   29.1872 C.ar    1  UNL1        0.1407
      5 N           7.2982   -5.8769   30.5734 N.ar    1  UNL1       -0.3374
      6 C           6.8400   -4.9471   31.6575 C.ar    1  UNL1        0.0734
      7 C           6.6175   -3.4948   31.3556 C.ar    1  UNL1        0.0171
      8 C           6.8531   -2.9722   29.9695 C.ar    1  UNL1        0.0046
      9 C           7.3113   -3.9020   28.8853 C.ar    1  UNL1        0.0386
     10 H           7.4442   -6.8301   30.7715 H       1  UNL1        0.1674
     11 C           6.1593   -2.5649   32.4398 C.ar    1  UNL1        0.0015
     12 C           4.7445   -2.6285   32.9341 C.ar    1  UNL1        0.0014
     13 C           4.2863   -1.6986   34.0183 C.ar    1  UNL1        0.0199
     14 C           5.2430   -0.7053   34.6083 C.ar    1  UNL1        0.1222
     15 C           6.6578   -0.6418   34.1140 C.ar    1  UNL1        0.0199
     16 C           7.1159   -1.5716   33.0298 C.ar    1  UNL1        0.0014
     17 S           4.7848    0.2245   35.6925 S.O2    1  UNL1        0.0634
     18 O           3.9113    0.9430   34.7073 O.2     1  UNL1       -0.1528
     19 O           5.6583   -0.4940   36.6778 O.2     1  UNL1       -0.1528
     20 N           4.3267    1.1543   36.7767 N.3     1  UNL1       -0.1504
     21 C           2.9354    1.7141   36.7464 C.3     1  UNL1        0.1279
     22 C           2.4773    2.6439   37.8306 C.3     1  UNL1        0.1613
     23 O           3.4104    3.0140   38.9452 O.3     1  UNL1       -0.3507
     24 C           4.8017    2.4542   38.9756 C.3     1  UNL1        0.1613
     25 C           5.2599    1.5243   37.8913 C.3     1  UNL1        0.1279
     26 C           7.5357   -2.3683   26.7076 C.2     1  UNL1        0.2015
     27 O           8.7812   -1.5811   26.4269 O.2     1  UNL1       -0.2864
     28 C           4.1279   -0.3348   26.6619 C.ar    1  UNL1        0.0920
     29 C           3.5352   -0.8039   25.3662 C.ar    1  UNL1        0.0204
     30 C           4.2761   -1.7945   24.5177 C.ar    1  UNL1        0.0312
     31 C           5.6095   -2.3159   24.9648 C.ar    1  UNL1        0.1454
     32 F           6.3504   -3.3065   24.1163 F       1  UNL1       -0.2040
     33 C           6.2021   -1.8468   26.2604 C.ar    1  UNL1        0.0951
     34 C           5.4613   -0.8563   27.1089 C.ar    1  UNL1        0.1598
     35 F           6.0540   -0.3872   28.4046 F       1  UNL1       -0.2026
     36 N           3.3870    0.6557   27.5104 N.pl3   1  UNL1       -0.2166
     37 H           3.7260    1.5754   27.6029 H       1  UNL1        0.1734
     38 S           2.1297    0.2451   28.2179 S.O2    1  UNL1        0.0540
     39 O           2.9410   -0.5482   29.1990 O.2     1  UNL1       -0.1545
     40 O           1.3185    1.0383   27.2367 O.2     1  UNL1       -0.1545
     41 C           0.8724   -0.1655   28.9253 C.3     1  UNL1        0.1724
     42 C          -1.7142   -0.0020   29.1065 C.3     1  UNL1        0.0019
     43 C          -0.4620    0.0769   28.2845 C.3     1  UNL1        0.0273
@<TRIPOS>BOND
     1    42    43    1
     2    43    41    1
     3    41    38    1
     4    38    39    2
     5    38    40    2
     6    38    36    1
     7    36    28    1
     8    28    29   ar
     9    29    30   ar
    10    30    31   ar
    11    31    32    1
    12    31    33   ar
    13    33    26    1
    14    26    27    2
    15    26     1    1
    16     1     2   ar
    17     2     3   ar
    18     3     4   ar
    19     4     5   ar
    20     5     6   ar
    21     6     7   ar
    22     7    11    1
    23    11    12   ar
    24    12    13   ar
    25    13    14   ar
    26    14    17    1
    27    17    18    2
    28    17    19    2
    29    17    20    1
    30    20    21    1
    31    21    22    1
    32    22    23    1
    33    23    24    1
    34    24    25    1
    35    14    15   ar
    36    15    16   ar
    37     7     8   ar
    38     8     9   ar
    39    33    34   ar
    40    34    35    1
    41    34    28   ar
    42     9     1   ar
    43     9     4    1
    44    16    11   ar
    45    25    20    1
    46    36    37    1
    47     5    10    1
@<TRIPOS>MOLECULE
*****
 43 47 0 0 0
SMALL
GASTEIGER

@<TRIPOS>ATOM
      1 C           7.6632   -4.0390   27.4954 C.ar    1  UNL1        0.0611
      2 C           8.0876   -5.3805   26.9756 C.ar    1  UNL1        0.1037
      3 N           8.0253   -6.3585   28.1112 N.ar    1  UNL1       -0.2269
      4 C           7.5624   -5.6214   29.3329 C.ar    1  UNL1        0.1407
      5 N           7.3159   -6.0704   30.7427 N.ar    1  UNL1       -0.3374
      6 C           6.8455   -5.0858   31.7719 C.ar    1  UNL1        0.0734
      7 C           6.6217   -3.6523   31.3913 C.ar    1  UNL1        0.0171
      8 C           6.8683   -3.2033   29.9815 C.ar    1  UNL1        0.0046
      9 C           7.3387   -4.1879   28.9523 C.ar    1  UNL1        0.0386
     10 H           7.4627   -7.0113   30.9925 H       1  UNL1        0.1674
     11 C           6.1513   -2.6677   32.4206 C.ar    1  UNL1        0.0015
     12 C           7.0695   -1.5794   32.8922 C.ar    1  UNL1        0.0014
     13 C           6.5990   -0.5948   33.9215 C.ar    1  UNL1        0.0199
     14 C           5.2104   -0.6986   34.4791 C.ar    1  UNL1        0.1222
     15 C           4.2922   -1.7870   34.0074 C.ar    1  UNL1        0.0199
     16 C           4.7626   -2.7715   32.9782 C.ar    1  UNL1        0.0014
     17 S           4.7400    0.2859   35.5083 S.O2    1  UNL1        0.0634
     18 O           4.0166    1.0545   34.4425 O.2     1  UNL1       -0.1528
     19 O           5.4633   -0.4826   36.5742 O.2     1  UNL1       -0.1528
     20 N           4.2696    1.2704   36.5376 N.3     1  UNL1       -0.1504
     21 C           3.0195    2.0647   36.2995 C.3     1  UNL1        0.1279
     22 C           2.5491    3.0492   37.3288 C.3     1  UNL1        0.1613
     23 O           3.3286    3.2395   38.5961 O.3     1  UNL1       -0.3507
     24 C           4.5786    2.4453   38.8342 C.3     1  UNL1        0.1613
     25 C           5.0491    1.4608   37.8049 C.3     1  UNL1        0.1279
     26 C           7.5783   -2.7712   26.6983 C.2     1  UNL1        0.2015
     27 O           8.5400   -1.6515   26.9653 O.2     1  UNL1       -0.2864
     28 C           5.6874   -3.1083   23.2254 C.ar    1  UNL1        0.0920
     29 C           4.4382   -2.3267   23.5057 C.ar    1  UNL1        0.0204
     30 C           4.2357   -1.6932   24.8502 C.ar    1  UNL1        0.0312
     31 C           5.2823   -1.8414   25.9144 C.ar    1  UNL1        0.1454
     32 F           5.0798   -1.2079   27.2589 F       1  UNL1       -0.2040
     33 C           6.5315   -2.6230   25.6341 C.ar    1  UNL1        0.0951
     34 C           6.7340   -3.2565   24.2896 C.ar    1  UNL1        0.1598
     35 F           7.9833   -4.0381   24.0093 F       1  UNL1       -0.2026
     36 N           5.8899   -3.7418   21.8808 N.pl3   1  UNL1       -0.2166
     37 H           6.6451   -4.3563   21.7349 H       1  UNL1        0.1734
     38 S           4.9417   -3.4390   20.7587 S.O2    1  UNL1        0.0540
     39 O           4.1420   -4.6599   21.1049 O.2     1  UNL1       -0.1545
     40 O           5.7414   -2.2181   20.4124 O.2     1  UNL1       -0.1545
     41 C           3.9936   -3.1361   19.6365 C.3     1  UNL1        0.1724
     42 C           2.2649   -1.2846   20.2141 C.3     1  UNL1        0.0019
     43 C           3.4724   -1.7419   19.4507 C.3     1  UNL1        0.0273
@<TRIPOS>BOND
     1    42    43    1
     2    43    41    1
     3    41    38    1
     4    38    39    2
     5    38    40    2
     6    38    36    1
     7    36    28    1
     8    28    29   ar
     9    29    30   ar
    10    30    31   ar
    11    31    32    1
    12    31    33   ar
    13    33    26    1
    14    26    27    2
    15    26     1    1
    16     1     2   ar
    17     2     3   ar
    18     3     4   ar
    19     4     5   ar
    20     5     6   ar
    21     6     7   ar
    22     7    11    1
    23    11    12   ar
    24    12    13   ar
    25    13    14   ar
    26    14    17    1
    27    17    18    2
    28    17    19    2
    29    17    20    1
    30    20    21    1
    31    21    22    1
    32    22    23    1
    33    23    24    1
    34    24    25    1
    35    14    15   ar
    36    15    16   ar
    37     7     8   ar
    38     8     9   ar
    39    33    34   ar
    40    34    35    1
    41    34    28   ar
    42     9     1   ar
    43     9     4    1
    44    16    11   ar
    45    25    20    1
    46    36    37    1
    47     5    10    1
@<TRIPOS>MOLECULE
*****
 43 47 0 0 0
SMALL
GASTEIGER

@<TRIPOS>ATOM
      1 C           5.4610   -3.4675   22.3398 C.ar    1  UNL1        0.0611
      2 C           6.7284   -4.1275   22.7959 C.ar    1  UNL1        0.1037
      3 N           7.0577   -3.6040   24.1625 N.ar    1  UNL1       -0.2269
      4 C           5.9939   -2.6205   24.5510 C.ar    1  UNL1        0.1407
      5 N           5.7963   -1.7909   25.7850 N.ar    1  UNL1       -0.3374
      6 C           4.6118   -0.8769   25.8924 C.ar    1  UNL1        0.0734
      7 C           3.6250   -0.7925   24.7659 C.ar    1  UNL1        0.0171
      8 C           3.8226   -1.6221   23.5319 C.ar    1  UNL1        0.0046
      9 C           5.0070   -2.5361   23.4245 C.ar    1  UNL1        0.0386
     10 H           6.4440   -1.8463   26.5243 H       1  UNL1        0.1674
     11 C           2.4405    0.1216   24.8734 C.ar    1  UNL1        0.0015
     12 C           1.9681    0.5818   26.2206 C.ar    1  UNL1        0.0014
     13 C           0.7836    1.4959   26.3281 C.ar    1  UNL1        0.0199
     14 C           0.0715    1.9497   25.0883 C.ar    1  UNL1        0.1222
     15 C           0.5440    1.4894   23.7410 C.ar    1  UNL1        0.0199
     16 C           1.7284    0.5754   23.6336 C.ar    1  UNL1        0.0014
     17 S          -1.1129    2.8637   25.1957 S.O2    1  UNL1        0.0634
     18 O          -0.9870    3.1981   23.7389 O.2     1  UNL1       -0.1528
     19 O          -1.2389    2.5293   26.6525 O.2     1  UNL1       -0.1528
     20 N          -2.2974    3.7778   25.3031 N.3     1  UNL1       -0.1504
     21 C          -2.6311    4.7087   24.1752 C.3     1  UNL1        0.1279
     22 C          -3.8156    5.6227   24.2827 C.3     1  UNL1        0.1613
     23 O          -4.6663    5.6059   25.5180 O.3     1  UNL1       -0.3507
     24 C          -4.3326    4.6750   26.6458 C.3     1  UNL1        0.1613
     25 C          -3.1481    3.7609   26.5384 C.3     1  UNL1        0.1279
     26 C           4.7691   -3.6982   21.0291 C.2     1  UNL1        0.2015
     27 O           3.9138   -4.9153   20.8366 O.2     1  UNL1       -0.2864
     28 C           3.9394   -0.8651   18.3767 C.ar    1  UNL1        0.0920
     29 C           5.2589   -0.7391   17.6745 C.ar    1  UNL1        0.0204
     30 C           6.4151   -1.5994   18.0905 C.ar    1  UNL1        0.0312
     31 C           6.2519   -2.5858   19.2087 C.ar    1  UNL1        0.1454
     32 F           7.4080   -3.4461   19.6247 F       1  UNL1       -0.2040
     33 C           4.9324   -2.7118   19.9109 C.ar    1  UNL1        0.0951
     34 C           3.7762   -1.8515   19.4949 C.ar    1  UNL1        0.1598
     35 F           2.4567   -1.9776   20.1971 F       1  UNL1       -0.2026
     36 N           2.7832   -0.0048   17.9607 N.pl3   1  UNL1       -0.2166
     37 H           2.4280   -0.0669   17.0446 H       1  UNL1        0.1734
     38 S           2.1684    0.9503   18.9404 S.O2    1  UNL1        0.0540
     39 O           0.8498    0.2501   18.7954 O.2     1  UNL1       -0.1545
     40 O           3.4870    1.6504   19.0854 O.2     1  UNL1       -0.1545
     41 C           1.5536    1.9053   19.9201 C.3     1  UNL1        0.1724
     42 C          -0.5853    3.3359   20.2788 C.3     1  UNL1        0.0019
     43 C           0.0613    2.0046   20.0353 C.3     1  UNL1        0.0273
@<TRIPOS>BOND
     1    42    43    1
     2    43    41    1
     3    41    38    1
     4    38    39    2
     5    38    40    2
     6    38    36    1
     7    36    28    1
     8    28    29   ar
     9    29    30   ar
    10    30    31   ar
    11    31    32    1
    12    31    33   ar
    13    33    26    1
    14    26    27    2
    15    26     1    1
    16     1     2   ar
    17     2     3   ar
    18     3     4   ar
    19     4     5   ar
    20     5     6   ar
    21     6     7   ar
    22     7    11    1
    23    11    12   ar
    24    12    13   ar
    25    13    14   ar
    26    14    17    1
    27    17    18    2
    28    17    19    2
    29    17    20    1
    30    20    21    1
    31    21    22    1
    32    22    23    1
    33    23    24    1
    34    24    25    1
    35    14    15   ar
    36    15    16   ar
    37     7     8   ar
    38     8     9   ar
    39    33    34   ar
    40    34    35    1
    41    34    28   ar
    42     9     1   ar
    43     9     4    1
    44    16    11   ar
    45    25    20    1
    46    36    37    1
    47     5    10    1
@<TRIPOS>MOLECULE
*****
 43 47 0 0 0
SMALL
GASTEIGER

@<TRIPOS>ATOM
      1 C           5.3547   -2.3504   19.0828 C.ar    1  UNL1        0.0611
      2 C           6.5566   -2.3836   18.1859 C.ar    1  UNL1        0.1037
      3 N           6.6202   -1.0793   17.4479 N.ar    1  UNL1       -0.2269
      4 C           5.4577   -0.2401   17.8885 C.ar    1  UNL1        0.1407
      5 N           5.0103    1.1380   17.5003 N.ar    1  UNL1       -0.3374
      6 C           3.7808    1.7304   18.1225 C.ar    1  UNL1        0.0734
      7 C           2.9986    0.9448   19.1329 C.ar    1  UNL1        0.0171
      8 C           3.4460   -0.4332   19.5212 C.ar    1  UNL1        0.0046
      9 C           4.6756   -1.0257   18.8990 C.ar    1  UNL1        0.0386
     10 H           5.5237    1.6536   16.8370 H       1  UNL1        0.1674
     11 C           1.7690    1.5373   19.7551 C.ar    1  UNL1        0.0015
     12 C           1.4514    1.2645   21.1955 C.ar    1  UNL1        0.0014
     13 C           0.2218    1.8570   21.8177 C.ar    1  UNL1        0.0199
     14 C          -0.6902    2.7223   20.9995 C.ar    1  UNL1        0.1222
     15 C          -0.3725    2.9951   19.5590 C.ar    1  UNL1        0.0199
     16 C           0.8570    2.4026   18.9369 C.ar    1  UNL1        0.0014
     17 S          -1.9197    3.3148   21.6216 S.O2    1  UNL1        0.0634
     18 O          -2.7390    2.8332   20.4611 O.2     1  UNL1       -0.1528
     19 O          -1.1005    3.7965   22.7820 O.2     1  UNL1       -0.1528
     20 N          -3.1493    3.9073   22.2437 N.3     1  UNL1       -0.1504
     21 C          -4.4775    3.2322   22.0700 C.3     1  UNL1        0.1279
     22 C          -5.7071    3.8247   22.6922 C.3     1  UNL1        0.1613
     23 O          -5.6085    5.0923   23.4880 O.3     1  UNL1       -0.3507
     24 C          -4.2804    5.7675   23.6617 C.3     1  UNL1        0.1613
     25 C          -3.0507    5.1750   23.0395 C.3     1  UNL1        0.1279
     26 C           4.9100   -3.4491   20.0021 C.2     1  UNL1        0.2015
     27 O           4.0240   -4.5447   19.4879 O.2     1  UNL1       -0.2864
     28 C           7.0659   -4.1451   23.2607 C.ar    1  UNL1        0.0920
     29 C           6.2340   -3.4583   24.3029 C.ar    1  UNL1        0.0204
     30 C           4.9609   -2.7684   23.9116 C.ar    1  UNL1        0.0312
     31 C           4.5195   -2.7653   22.4781 C.ar    1  UNL1        0.1454
     32 F           3.2464   -2.0754   22.0867 F       1  UNL1       -0.2040
     33 C           5.3513   -3.4522   21.4358 C.ar    1  UNL1        0.0951
     34 C           6.6245   -4.1421   21.8271 C.ar    1  UNL1        0.1598
     35 F           7.4563   -4.8289   20.7848 F       1  UNL1       -0.2026
     36 N           8.3390   -4.8350   23.6520 N.pl3   1  UNL1       -0.2166
     37 H           9.2072   -4.4133   23.4580 H       1  UNL1        0.1734
     38 S           8.2894   -6.1676   24.3389 S.O2    1  UNL1        0.0540
     39 O           8.3677   -5.4835   25.6716 O.2     1  UNL1       -0.1545
     40 O           8.2111   -6.8516   23.0063 O.2     1  UNL1       -0.1545
     41 C           8.2398   -7.5001   25.0258 C.3     1  UNL1        0.1724
     42 C           8.5255   -8.9025   27.1942 C.3     1  UNL1        0.0019
     43 C           8.3266   -7.5767   26.5213 C.3     1  UNL1        0.0273
@<TRIPOS>BOND
     1    42    43    1
     2    43    41    1
     3    41    38    1
     4    38    39    2
     5    38    40    2
     6    38    36    1
     7    36    28    1
     8    28    29   ar
     9    29    30   ar
    10    30    31   ar
    11    31    32    1
    12    31    33   ar
    13    33    26    1
    14    26    27    2
    15    26     1    1
    16     1     2   ar
    17     2     3   ar
    18     3     4   ar
    19     4     5   ar
    20     5     6   ar
    21     6     7   ar
    22     7    11    1
    23    11    12   ar
    24    12    13   ar
    25    13    14   ar
    26    14    17    1
    27    17    18    2
    28    17    19    2
    29    17    20    1
    30    20    21    1
    31    21    22    1
    32    22    23    1
    33    23    24    1
    34    24    25    1
    35    14    15   ar
    36    15    16   ar
    37     7     8   ar
    38     8     9   ar
    39    33    34   ar
    40    34    35    1
    41    34    28   ar
    42     9     1   ar
    43     9     4    1
    44    16    11   ar
    45    25    20    1
    46    36    37    1
    47     5    10    1
