@<TRIPOS>MOLECULE
*****
 33 36 0 0 0
SMALL
GASTEIGER

@<TRIPOS>ATOM
      1 C           7.3144   -3.8296   22.8009 C.ar    1  UNL1        0.2020
      2 N           6.1489   -4.0779   21.8899 N.ar    1  UNL1       -0.1915
      3 C           6.4740   -3.4877   20.5498 C.ar    1  UNL1        0.2193
      4 N           7.8406   -2.8747   20.6325 N.ar    1  UNL1       -0.2185
      5 C           8.5611   -2.1735   19.5193 C.3     1  UNL1        0.1568
      6 N           8.3600   -3.0860   22.0237 N.ar    1  UNL1       -0.1459
      7 C           7.4432   -6.1261   26.0350 C.ar    1  UNL1        0.2417
      8 N           7.3411   -5.7047   24.5991 N.ar    1  UNL1       -0.2073
      9 C           7.4166   -4.2510   24.2369 C.ar    1  UNL1        0.1219
     10 C           7.5943   -3.2188   25.3106 C.ar    1  UNL1        0.0240
     11 C           7.6965   -3.6402   26.7465 C.ar    1  UNL1        0.0240
     12 C           7.6210   -5.0938   27.1087 C.ar    1  UNL1        0.1189
     13 N           7.7231   -5.5152   28.5447 N.ar    1  UNL1       -0.2826
     14 C           6.6134   -5.4852   29.5535 C.ar    1  UNL1        0.1826
     15 N           7.1574   -5.9920   30.8563 N.ar    1  UNL1       -0.2280
     16 C           8.6034   -6.3353   30.6527 C.ar    1  UNL1        0.0786
     17 C           9.5360   -6.8779   31.6947 C.3     1  UNL1        0.0538
     18 C           8.9530   -6.0406   29.2241 C.ar    1  UNL1        0.0963
     19 C           8.6213   -8.3999   26.4732 C.3     1  UNL1        0.2543
     20 O           7.3677   -7.5797   26.3973 O.3     1  UNL1       -0.4551
     21 N           5.5881   -3.5071   19.3395 N.pl3   1  UNL1       -0.2810
     22 H           5.5319   -4.3177   18.7836 H       1  UNL1        0.1551
     23 C           4.7879   -2.2916   18.9761 C.ar    1  UNL1        0.0782
     24 C           3.4888   -2.0131   19.6727 C.ar    1  UNL1        0.0208
     25 C           2.6886   -0.7975   19.3094 C.ar    1  UNL1        0.0728
     26 C           3.1873    0.1395   18.2496 C.ar    1  UNL1        0.0062
     27 C           4.4863   -0.1389   17.5531 C.ar    1  UNL1        0.0309
     28 C           5.2865   -1.3545   17.9164 C.ar    1  UNL1        0.1535
     29 F           6.5856   -1.6330   17.2199 F       1  UNL1       -0.2029
     30 C           1.3896   -0.5191   20.0059 C.3     1  UNL1        0.4186
     31 F           0.0907   -0.2406   20.7024 F       1  UNL1       -0.1659
     32 F           1.9088   -1.1906   21.2426 F       1  UNL1       -0.1659
     33 F           0.8705    0.1525   18.7692 F       1  UNL1       -0.1659
@<TRIPOS>BOND
     1    19    20    1
     2    20     7    1
     3     7     8   ar
     4     8     9   ar
     5     9     1    1
     6     1     2   ar
     7     2     3   ar
     8     3    21    1
     9    21    23    1
    10    23    24   ar
    11    24    25   ar
    12    25    30    1
    13    30    31    1
    14    30    32    1
    15    30    33    1
    16    25    26   ar
    17    26    27   ar
    18    27    28   ar
    19    28    29    1
    20     3     4   ar
    21     4     5    1
    22     4     6   ar
    23     9    10   ar
    24    10    11   ar
    25    11    12   ar
    26    12    13    1
    27    13    14   ar
    28    14    15   ar
    29    15    16   ar
    30    16    17    1
    31    16    18   ar
    32    12     7   ar
    33    18    13   ar
    34     6     1   ar
    35    28    23   ar
    36    21    22    1
@<TRIPOS>MOLECULE
*****
 33 36 0 0 0
SMALL
GASTEIGER

@<TRIPOS>ATOM
      1 C           7.2582   -4.0699   22.8862 C.ar    1  UNL1        0.2020
      2 N           6.0663   -4.2894   22.0024 N.ar    1  UNL1       -0.1915
      3 C           6.3880   -3.7384   20.6449 C.ar    1  UNL1        0.2193
      4 N           7.7788   -3.1782   20.6897 N.ar    1  UNL1       -0.2185
      5 C           8.5044   -2.5275   19.5494 C.3     1  UNL1        0.1568
      6 N           8.3166   -3.3831   22.0748 N.ar    1  UNL1       -0.1459
      7 C           7.2708   -3.8442   26.8484 C.ar    1  UNL1        0.2417
      8 N           7.1572   -3.4469   25.4065 N.ar    1  UNL1       -0.2073
      9 C           7.3719   -4.4673   24.3282 C.ar    1  UNL1        0.1219
     10 C           7.7002   -5.8850   24.6918 C.ar    1  UNL1        0.0240
     11 C           7.8138   -6.2823   26.1337 C.ar    1  UNL1        0.0240
     12 C           7.5991   -5.2619   27.2120 C.ar    1  UNL1        0.1189
     13 N           7.7128   -5.6593   28.6540 N.ar    1  UNL1       -0.2826
     14 C           6.6471   -5.5039   29.6980 C.ar    1  UNL1        0.1826
     15 N           7.1878   -6.0304   30.9943 N.ar    1  UNL1       -0.2280
     16 C           8.5877   -6.5113   30.7514 C.ar    1  UNL1        0.0786
     17 C           9.5025   -7.1155   31.7752 C.3     1  UNL1        0.0538
     18 C           8.9122   -6.2820   29.3050 C.ar    1  UNL1        0.0963
     19 C           8.0823   -1.7559   28.1638 C.3     1  UNL1        0.2543
     20 O           7.0561   -2.8239   27.9267 O.3     1  UNL1       -0.4551
     21 N           5.4786   -3.7461   19.4520 N.pl3   1  UNL1       -0.2810
     22 H           5.3723   -4.5673   18.9194 H       1  UNL1        0.1551
     23 C           4.7312   -2.5028   19.0706 C.ar    1  UNL1        0.0782
     24 C           3.4571   -2.1469   19.7779 C.ar    1  UNL1        0.0208
     25 C           2.7097   -0.9036   19.3965 C.ar    1  UNL1        0.0728
     26 C           3.2363   -0.0161   18.3079 C.ar    1  UNL1        0.0062
     27 C           4.5103   -0.3720   17.6007 C.ar    1  UNL1        0.0309
     28 C           5.2577   -1.6153   17.9821 C.ar    1  UNL1        0.1535
     29 F           6.5318   -1.9713   17.2748 F       1  UNL1       -0.2029
     30 C           1.4356   -0.5477   20.1038 C.3     1  UNL1        0.4186
     31 F           0.1616   -0.1918   20.8110 F       1  UNL1       -0.1659
     32 F           0.8956    0.0416   18.8345 F       1  UNL1       -0.1659
     33 F           1.9756   -1.1370   21.3731 F       1  UNL1       -0.1659
@<TRIPOS>BOND
     1    19    20    1
     2    20     7    1
     3     7     8   ar
     4     8     9   ar
     5     9     1    1
     6     1     2   ar
     7     2     3   ar
     8     3    21    1
     9    21    23    1
    10    23    24   ar
    11    24    25   ar
    12    25    30    1
    13    30    31    1
    14    30    32    1
    15    30    33    1
    16    25    26   ar
    17    26    27   ar
    18    27    28   ar
    19    28    29    1
    20     3     4   ar
    21     4     5    1
    22     4     6   ar
    23     9    10   ar
    24    10    11   ar
    25    11    12   ar
    26    12    13    1
    27    13    14   ar
    28    14    15   ar
    29    15    16   ar
    30    16    17    1
    31    16    18   ar
    32    12     7   ar
    33    18    13   ar
    34     6     1   ar
    35    28    23   ar
    36    21    22    1
@<TRIPOS>MOLECULE
*****
 33 36 0 0 0
SMALL
GASTEIGER

@<TRIPOS>ATOM
      1 C           0.3854    1.7784   23.5825 C.ar    1  UNL1        0.2020
      2 N           0.7651    0.8349   22.4799 N.ar    1  UNL1       -0.1915
      3 C           0.2420    1.3945   21.1903 C.ar    1  UNL1        0.2193
      4 N          -0.4610    2.6839   21.4958 N.ar    1  UNL1       -0.2185
      5 C          -1.1344    3.5789   20.4980 C.3     1  UNL1        0.1568
      6 N          -0.3724    2.9211   22.9742 N.ar    1  UNL1       -0.1459
      7 C          -0.0734    1.1965   27.4813 C.ar    1  UNL1        0.2417
      8 N          -0.3950    1.3660   26.0261 N.ar    1  UNL1       -0.2073
      9 C           0.7070    1.6089   25.0378 C.ar    1  UNL1        0.1219
     10 C           2.1305    1.6823   25.5048 C.ar    1  UNL1        0.0240
     11 C           2.4521    1.5128   26.9601 C.ar    1  UNL1        0.0240
     12 C           1.3501    1.2699   27.9483 C.ar    1  UNL1        0.1189
     13 N           1.6717    1.1004   29.4037 N.ar    1  UNL1       -0.2826
     14 C           2.2700   -0.1200   30.0381 C.ar    1  UNL1        0.1826
     15 N           2.4195    0.1469   31.5065 N.ar    1  UNL1       -0.2280
     16 C           1.9136    1.5325   31.7797 C.ar    1  UNL1        0.0786
     17 C           1.8765    2.2097   33.1176 C.3     1  UNL1        0.0538
     18 C           1.4515    2.1217   30.4800 C.ar    1  UNL1        0.0963
     19 C          -1.4871   -0.4438   28.9170 C.3     1  UNL1        0.2543
     20 O          -1.1754    0.9536   28.4696 O.3     1  UNL1       -0.4551
     21 N           0.3950    0.7737   19.8333 N.pl3   1  UNL1       -0.2810
     22 H          -0.3614    0.7754   19.2031 H       1  UNL1        0.1551
     23 C           1.7004    0.1505   19.4365 C.ar    1  UNL1        0.0782
     24 C           2.0624   -1.2159   19.9387 C.ar    1  UNL1        0.0208
     25 C           3.3678   -1.8392   19.5419 C.ar    1  UNL1        0.0728
     26 C           4.3112   -1.0962   18.6430 C.ar    1  UNL1        0.0062
     27 C           3.9491    0.2701   18.1409 C.ar    1  UNL1        0.0309
     28 C           2.6437    0.8934   18.5377 C.ar    1  UNL1        0.1535
     29 F           2.2816    2.2598   18.0356 F       1  UNL1       -0.2029
     30 C           3.7298   -3.2055   20.0440 C.3     1  UNL1        0.4186
     31 F           4.0919   -4.5718   20.5462 F       1  UNL1       -0.1659
     32 F           3.5969   -3.7518   18.6534 F       1  UNL1       -0.1659
     33 F           3.8628   -2.6592   21.4347 F       1  UNL1       -0.1659
@<TRIPOS>BOND
     1    19    20    1
     2    20     7    1
     3     7     8   ar
     4     8     9   ar
     5     9     1    1
     6     1     2   ar
     7     2     3   ar
     8     3    21    1
     9    21    23    1
    10    23    24   ar
    11    24    25   ar
    12    25    30    1
    13    30    31    1
    14    30    32    1
    15    30    33    1
    16    25    26   ar
    17    26    27   ar
    18    27    28   ar
    19    28    29    1
    20     3     4   ar
    21     4     5    1
    22     4     6   ar
    23     9    10   ar
    24    10    11   ar
    25    11    12   ar
    26    12    13    1
    27    13    14   ar
    28    14    15   ar
    29    15    16   ar
    30    16    17    1
    31    16    18   ar
    32    12     7   ar
    33    18    13   ar
    34     6     1   ar
    35    28    23   ar
    36    21    22    1
@<TRIPOS>MOLECULE
*****
 33 36 0 0 0
SMALL
GASTEIGER

@<TRIPOS>ATOM
      1 C           0.1715    2.1703   19.2212 C.ar    1  UNL1        0.2020
      2 N          -0.6339    2.7751   20.3327 N.ar    1  UNL1       -0.1915
      3 C          -1.4463    3.8978   19.7587 C.ar    1  UNL1        0.2193
      4 N          -1.1429    3.9869   18.2923 N.ar    1  UNL1       -0.2185
      5 C          -1.7353    4.9709   17.3276 C.3     1  UNL1        0.1568
      6 N          -0.1430    2.9192   17.9602 N.ar    1  UNL1       -0.1459
      7 C           3.0144   -0.4584   18.3505 C.ar    1  UNL1        0.2417
      8 N           2.0617    0.6931   18.2234 N.ar    1  UNL1       -0.2073
      9 C           1.1243    1.0186   19.3483 C.ar    1  UNL1        0.1219
     10 C           1.1396    0.1926   20.6002 C.ar    1  UNL1        0.0240
     11 C           2.0924   -0.9589   20.7273 C.ar    1  UNL1        0.0240
     12 C           3.0298   -1.2844   19.6024 C.ar    1  UNL1        0.1189
     13 N           3.9825   -2.4361   19.7295 N.ar    1  UNL1       -0.2826
     14 C           3.7436   -3.8356   19.2457 C.ar    1  UNL1        0.1826
     15 N           4.9549   -4.6548   19.5800 N.ar    1  UNL1       -0.2280
     16 C           5.9425   -3.7615   20.2704 C.ar    1  UNL1        0.0786
     17 C           7.2938   -4.1680   20.7791 C.3     1  UNL1        0.0538
     18 C           5.3415   -2.3902   20.3628 C.ar    1  UNL1        0.0963
     19 C           5.2856   -0.1032   17.1400 C.3     1  UNL1        0.2543
     20 O           3.9518   -0.7840   17.2256 O.3     1  UNL1       -0.4551
     21 N          -2.3954    4.7771   20.5177 N.pl3   1  UNL1       -0.2810
     22 H          -2.5210    5.7152   20.2466 H       1  UNL1        0.1551
     23 C          -3.1530    4.2271   21.6896 C.ar    1  UNL1        0.0782
     24 C          -2.4888    4.1241   23.0307 C.ar    1  UNL1        0.0208
     25 C          -3.2464    3.5741   24.2026 C.ar    1  UNL1        0.0728
     26 C          -4.6683    3.1271   24.0336 C.ar    1  UNL1        0.0062
     27 C          -5.3325    3.2302   22.6926 C.ar    1  UNL1        0.0309
     28 C          -4.5748    3.7801   21.5207 C.ar    1  UNL1        0.1535
     29 F          -5.2390    3.8832   20.1796 F       1  UNL1       -0.2029
     30 C          -2.5822    3.4711   25.5436 C.3     1  UNL1        0.4186
     31 F          -1.9180    3.3681   26.8845 F       1  UNL1       -0.1659
     32 F          -1.2440    3.3731   24.8732 F       1  UNL1       -0.1659
     33 F          -3.9205    3.5691   26.2139 F       1  UNL1       -0.1659
@<TRIPOS>BOND
     1    19    20    1
     2    20     7    1
     3     7     8   ar
     4     8     9   ar
     5     9     1    1
     6     1     2   ar
     7     2     3   ar
     8     3    21    1
     9    21    23    1
    10    23    24   ar
    11    24    25   ar
    12    25    30    1
    13    30    31    1
    14    30    32    1
    15    30    33    1
    16    25    26   ar
    17    26    27   ar
    18    27    28   ar
    19    28    29    1
    20     3     4   ar
    21     4     5    1
    22     4     6   ar
    23     9    10   ar
    24    10    11   ar
    25    11    12   ar
    26    12    13    1
    27    13    14   ar
    28    14    15   ar
    29    15    16   ar
    30    16    17    1
    31    16    18   ar
    32    12     7   ar
    33    18    13   ar
    34     6     1   ar
    35    28    23   ar
    36    21    22    1
@<TRIPOS>MOLECULE
*****
 33 36 0 0 0
SMALL
GASTEIGER

@<TRIPOS>ATOM
      1 C          -0.7242    2.8158   20.0649 C.ar    1  UNL1        0.2020
      2 N          -2.1140    2.4129   20.4601 N.ar    1  UNL1       -0.1915
      3 C          -2.9258    3.6616   20.6375 C.ar    1  UNL1        0.2193
      4 N          -2.0378    4.8364   20.3520 N.ar    1  UNL1       -0.2185
      5 C          -2.4399    6.2803   20.4102 C.3     1  UNL1        0.1568
      6 N          -0.6771    4.3136   19.9982 N.ar    1  UNL1       -0.1459
      7 C           2.7849    1.4583   18.8027 C.ar    1  UNL1        0.2417
      8 N           1.6427    2.3896   19.0821 N.ar    1  UNL1       -0.2073
      9 C           0.4180    1.8844   19.7856 C.ar    1  UNL1        0.1219
     10 C           0.3355    0.4481   20.2098 C.ar    1  UNL1        0.0240
     11 C           1.4777   -0.4832   19.9305 C.ar    1  UNL1        0.0240
     12 C           2.7024    0.0219   19.2269 C.ar    1  UNL1        0.1189
     13 N           3.8447   -0.9094   18.9476 N.ar    1  UNL1       -0.2826
     14 C           4.1893   -1.5074   17.6158 C.ar    1  UNL1        0.1826
     15 N           5.4004   -2.3738   17.7961 N.ar    1  UNL1       -0.2280
     16 C           5.8043   -2.3113   19.2394 C.ar    1  UNL1        0.0786
     17 C           6.9658   -3.0280   19.8618 C.3     1  UNL1        0.0538
     18 C           4.8428   -1.4063   19.9510 C.ar    1  UNL1        0.0963
     19 C           5.1759    2.4707   18.8944 C.3     1  UNL1        0.2543
     20 O           4.0096    1.9634   18.0992 O.3     1  UNL1       -0.4551
     21 N          -4.3719    3.7246   21.0313 N.pl3   1  UNL1       -0.2810
     22 H          -5.0727    3.6668   20.3423 H       1  UNL1        0.1551
     23 C          -4.7502    3.8758   22.4749 C.ar    1  UNL1        0.0782
     24 C          -3.7308    3.6282   23.5473 C.ar    1  UNL1        0.0208
     25 C          -4.1091    3.7793   24.9909 C.ar    1  UNL1        0.0728
     26 C          -5.5067    4.1780   25.3622 C.ar    1  UNL1        0.0062
     27 C          -6.5259    4.4256   24.2899 C.ar    1  UNL1        0.0309
     28 C          -6.1476    4.2745   22.8463 C.ar    1  UNL1        0.1535
     29 F          -7.1669    4.5221   21.7740 F       1  UNL1       -0.2029
     30 C          -3.0899    3.5317   26.0631 C.3     1  UNL1        0.4186
     31 F          -2.0706    3.2841   27.1354 F       1  UNL1       -0.1659
     32 F          -2.1125    3.0637   25.0260 F       1  UNL1       -0.1659
     33 F          -4.0673    3.9997   27.1003 F       1  UNL1       -0.1659
@<TRIPOS>BOND
     1    19    20    1
     2    20     7    1
     3     7     8   ar
     4     8     9   ar
     5     9     1    1
     6     1     2   ar
     7     2     3   ar
     8     3    21    1
     9    21    23    1
    10    23    24   ar
    11    24    25   ar
    12    25    30    1
    13    30    31    1
    14    30    32    1
    15    30    33    1
    16    25    26   ar
    17    26    27   ar
    18    27    28   ar
    19    28    29    1
    20     3     4   ar
    21     4     5    1
    22     4     6   ar
    23     9    10   ar
    24    10    11   ar
    25    11    12   ar
    26    12    13    1
    27    13    14   ar
    28    14    15   ar
    29    15    16   ar
    30    16    17    1
    31    16    18   ar
    32    12     7   ar
    33    18    13   ar
    34     6     1   ar
    35    28    23   ar
    36    21    22    1
@<TRIPOS>MOLECULE
*****
 33 36 0 0 0
SMALL
GASTEIGER

@<TRIPOS>ATOM
      1 C           5.8043   -3.3023   22.3939 C.ar    1  UNL1        0.2020
      2 N           5.5519   -1.9230   21.8611 N.ar    1  UNL1       -0.1915
      3 C           5.1338   -2.0497   20.4262 C.ar    1  UNL1        0.2193
      4 N           5.1277   -3.5073   20.0720 N.ar    1  UNL1       -0.2185
      5 C           4.7701   -4.0886   18.7363 C.3     1  UNL1        0.1568
      6 N           5.5421   -4.2814   21.2881 N.ar    1  UNL1       -0.1459
      7 C           7.4126   -5.2651   25.4452 C.ar    1  UNL1        0.2417
      8 N           6.9749   -4.9246   24.0515 N.ar    1  UNL1       -0.2073
      9 C           6.2419   -3.6428   23.7877 C.ar    1  UNL1        0.1219
     10 C           5.9467   -2.7014   24.9175 C.ar    1  UNL1        0.0240
     11 C           6.3844   -3.0419   26.3112 C.ar    1  UNL1        0.0240
     12 C           7.1173   -4.3237   26.5751 C.ar    1  UNL1        0.1189
     13 N           7.5550   -4.6642   27.9689 N.ar    1  UNL1       -0.2826
     14 C           8.9535   -4.5670   28.5023 C.ar    1  UNL1        0.1826
     15 N           8.9338   -5.0043   29.9370 N.ar    1  UNL1       -0.2280
     16 C           7.5231   -5.3719   30.2903 C.ar    1  UNL1        0.0786
     17 C           7.0479   -5.8633   31.6254 C.3     1  UNL1        0.0538
     18 C           6.6709   -5.1616   29.0739 C.ar    1  UNL1        0.0963
     19 C           7.3857   -7.7765   26.1100 C.3     1  UNL1        0.2543
     20 O           8.1456   -6.5469   25.7091 O.3     1  UNL1       -0.4551
     21 N           4.7832   -0.9175   19.5067 N.pl3   1  UNL1       -0.2810
     22 H           5.4485   -0.5819   18.8633 H       1  UNL1        0.1551
     23 C           3.4191   -0.2967   19.5676 C.ar    1  UNL1        0.0782
     24 C           2.8086    0.0437   20.8949 C.ar    1  UNL1        0.0208
     25 C           1.4445    0.6645   20.9558 C.ar    1  UNL1        0.0728
     26 C           0.6908    0.9449   19.6896 C.ar    1  UNL1        0.0062
     27 C           1.3013    0.6045   18.3624 C.ar    1  UNL1        0.0309
     28 C           2.6654   -0.0163   18.3015 C.ar    1  UNL1        0.1535
     29 F           3.2760   -0.3567   16.9743 F       1  UNL1       -0.2029
     30 C           0.8340    1.0049   22.2830 C.3     1  UNL1        0.4186
     31 F           0.2235    1.3453   23.6102 F       1  UNL1       -0.1659
     32 F          -0.2832    1.7224   21.5851 F       1  UNL1       -0.1659
     33 F           1.9512    0.2875   22.9809 F       1  UNL1       -0.1659
@<TRIPOS>BOND
     1    19    20    1
     2    20     7    1
     3     7     8   ar
     4     8     9   ar
     5     9     1    1
     6     1     2   ar
     7     2     3   ar
     8     3    21    1
     9    21    23    1
    10    23    24   ar
    11    24    25   ar
    12    25    30    1
    13    30    31    1
    14    30    32    1
    15    30    33    1
    16    25    26   ar
    17    26    27   ar
    18    27    28   ar
    19    28    29    1
    20     3     4   ar
    21     4     5    1
    22     4     6   ar
    23     9    10   ar
    24    10    11   ar
    25    11    12   ar
    26    12    13    1
    27    13    14   ar
    28    14    15   ar
    29    15    16   ar
    30    16    17    1
    31    16    18   ar
    32    12     7   ar
    33    18    13   ar
    34     6     1   ar
    35    28    23   ar
    36    21    22    1
@<TRIPOS>MOLECULE
*****
 33 36 0 0 0
SMALL
GASTEIGER

@<TRIPOS>ATOM
      1 C           3.1049   -0.5255   24.3339 C.ar    1  UNL1        0.2020
      2 N           3.0757   -0.9238   22.8881 N.ar    1  UNL1       -0.1915
      3 C           2.0802   -0.0485   22.1861 C.ar    1  UNL1        0.2193
      4 N           1.4940    0.8908   23.1981 N.ar    1  UNL1       -0.2185
      5 C           0.4567    1.9406   22.9298 C.3     1  UNL1        0.1568
      6 N           2.1273    0.5960   24.5255 N.ar    1  UNL1       -0.1459
      7 C           6.0099   -2.5830   26.0882 C.ar    1  UNL1        0.2417
      8 N           5.1535   -1.9679   25.0213 N.ar    1  UNL1       -0.2073
      9 C           3.9612   -1.1406   25.4009 C.ar    1  UNL1        0.1219
     10 C           3.6252   -0.9285   26.8472 C.ar    1  UNL1        0.0240
     11 C           4.4816   -1.5437   27.9141 C.ar    1  UNL1        0.0240
     12 C           5.6739   -2.3709   27.5346 C.ar    1  UNL1        0.1189
     13 N           6.5302   -2.9861   28.6016 N.ar    1  UNL1       -0.2826
     14 C           7.5253   -2.2626   29.4596 C.ar    1  UNL1        0.1826
     15 N           8.1519   -3.2621   30.3861 N.ar    1  UNL1       -0.2280
     16 C           7.5440   -4.6034   30.1006 C.ar    1  UNL1        0.0786
     17 C           7.8795   -5.8895   30.7959 C.3     1  UNL1        0.0538
     18 C           6.5418   -4.4328   28.9977 C.ar    1  UNL1        0.0963
     19 C           7.0111   -4.7347   25.0309 C.3     1  UNL1        0.2543
     20 O           7.2022   -3.4103   25.7087 O.3     1  UNL1       -0.4551
     21 N           1.7319   -0.1029   20.7281 N.pl3   1  UNL1       -0.2810
     22 H           0.8627    0.2386   20.4165 H       1  UNL1        0.1551
     23 C           2.7080   -0.6778   19.7448 C.ar    1  UNL1        0.0782
     24 C           3.0377   -2.1407   19.7832 C.ar    1  UNL1        0.0208
     25 C           4.0137   -2.7155   18.7999 C.ar    1  UNL1        0.0728
     26 C           4.6600   -1.8275   17.7782 C.ar    1  UNL1        0.0062
     27 C           4.3303   -0.3648   17.7398 C.ar    1  UNL1        0.0309
     28 C           3.3543    0.2101   18.7231 C.ar    1  UNL1        0.1535
     29 F           3.0245    1.6729   18.6848 F       1  UNL1       -0.2029
     30 C           4.3434   -4.1783   18.8383 C.3     1  UNL1        0.4186
     31 F           4.6732   -5.6411   18.8766 F       1  UNL1       -0.1659
     32 F           5.8037   -3.8468   18.9270 F       1  UNL1       -0.1659
     33 F           2.8832   -4.5098   18.7496 F       1  UNL1       -0.1659
@<TRIPOS>BOND
     1    19    20    1
     2    20     7    1
     3     7     8   ar
     4     8     9   ar
     5     9     1    1
     6     1     2   ar
     7     2     3   ar
     8     3    21    1
     9    21    23    1
    10    23    24   ar
    11    24    25   ar
    12    25    30    1
    13    30    31    1
    14    30    32    1
    15    30    33    1
    16    25    26   ar
    17    26    27   ar
    18    27    28   ar
    19    28    29    1
    20     3     4   ar
    21     4     5    1
    22     4     6   ar
    23     9    10   ar
    24    10    11   ar
    25    11    12   ar
    26    12    13    1
    27    13    14   ar
    28    14    15   ar
    29    15    16   ar
    30    16    17    1
    31    16    18   ar
    32    12     7   ar
    33    18    13   ar
    34     6     1   ar
    35    28    23   ar
    36    21    22    1
@<TRIPOS>MOLECULE
*****
 33 36 0 0 0
SMALL
GASTEIGER

@<TRIPOS>ATOM
      1 C           0.8498    2.2290   20.6377 C.ar    1  UNL1        0.2020
      2 N           0.9035    1.3870   19.3975 N.ar    1  UNL1       -0.1915
      3 C           2.3455    1.1370   19.0690 C.ar    1  UNL1        0.2193
      4 N           3.1832    1.8244   20.1063 N.ar    1  UNL1       -0.2185
      5 C           4.6820    1.8351   20.1640 C.3     1  UNL1        0.1568
      6 N           2.2587    2.4993   21.0758 N.ar    1  UNL1       -0.1459
      7 C          -2.9463    3.2001   21.2677 C.ar    1  UNL1        0.2417
      8 N          -1.7022    2.7138   20.5854 N.ar    1  UNL1       -0.2073
      9 C          -0.3944    2.7153   21.3200 C.ar    1  UNL1        0.1219
     10 C          -0.3308    3.2032   22.7370 C.ar    1  UNL1        0.0240
     11 C          -1.5749    3.6895   23.4193 C.ar    1  UNL1        0.0240
     12 C          -2.8827    3.6879   22.6846 C.ar    1  UNL1        0.1189
     13 N          -4.1269    4.1742   23.3670 N.ar    1  UNL1       -0.2826
     14 C          -4.8820    3.4519   24.4431 C.ar    1  UNL1        0.1826
     15 N          -6.0562    4.2995   24.8342 N.ar    1  UNL1       -0.2280
     16 C          -6.0267    5.5458   23.9998 C.ar    1  UNL1        0.0786
     17 C          -7.0159    6.6717   24.0614 C.3     1  UNL1        0.0538
     18 C          -4.8343    5.4683   23.0931 C.ar    1  UNL1        0.0963
     19 C          -4.3443    3.7983   19.1611 C.3     1  UNL1        0.2543
     20 O          -4.2541    3.1985   20.5330 O.3     1  UNL1       -0.4551
     21 N           2.8598    0.3395   17.9073 N.pl3   1  UNL1       -0.2810
     22 H           2.5803    0.5677   16.9913 H       1  UNL1        0.1551
     23 C           3.7998   -0.8058   18.1412 C.ar    1  UNL1        0.0782
     24 C           3.3150   -2.0442   18.8354 C.ar    1  UNL1        0.0208
     25 C           4.2550   -3.1895   19.0693 C.ar    1  UNL1        0.0728
     26 C           5.6796   -3.0965   18.6090 C.ar    1  UNL1        0.0062
     27 C           6.1643   -1.8583   17.9149 C.ar    1  UNL1        0.0309
     28 C           5.2243   -0.7130   17.6810 C.ar    1  UNL1        0.1535
     29 F           5.7090    0.5253   16.9869 F       1  UNL1       -0.2029
     30 C           3.7703   -4.4277   19.7634 C.3     1  UNL1        0.4186
     31 F           3.2857   -5.6660   20.4575 F       1  UNL1       -0.1659
     32 F           2.7289   -4.6159   18.7005 F       1  UNL1       -0.1659
     33 F           4.8118   -4.2395   20.8264 F       1  UNL1       -0.1659
@<TRIPOS>BOND
     1    19    20    1
     2    20     7    1
     3     7     8   ar
     4     8     9   ar
     5     9     1    1
     6     1     2   ar
     7     2     3   ar
     8     3    21    1
     9    21    23    1
    10    23    24   ar
    11    24    25   ar
    12    25    30    1
    13    30    31    1
    14    30    32    1
    15    30    33    1
    16    25    26   ar
    17    26    27   ar
    18    27    28   ar
    19    28    29    1
    20     3     4   ar
    21     4     5    1
    22     4     6   ar
    23     9    10   ar
    24    10    11   ar
    25    11    12   ar
    26    12    13    1
    27    13    14   ar
    28    14    15   ar
    29    15    16   ar
    30    16    17    1
    31    16    18   ar
    32    12     7   ar
    33    18    13   ar
    34     6     1   ar
    35    28    23   ar
    36    21    22    1
@<TRIPOS>MOLECULE
*****
 33 36 0 0 0
SMALL
GASTEIGER

@<TRIPOS>ATOM
      1 C           1.3500    1.9638   18.5431 C.ar    1  UNL1        0.2020
      2 N           1.5628    0.4794   18.5085 N.ar    1  UNL1       -0.1915
      3 C           3.0297    0.2256   18.3246 C.ar    1  UNL1        0.2193
      4 N           3.7235    1.5533   18.2455 N.ar    1  UNL1       -0.2185
      5 C           5.1967    1.7688   18.0633 C.3     1  UNL1        0.1568
      6 N           2.6853    2.6275   18.3805 N.ar    1  UNL1       -0.1459
      7 C          -2.0422    3.2320   20.1664 C.ar    1  UNL1        0.2417
      8 N          -0.7252    2.5338   19.9987 N.ar    1  UNL1       -0.2073
      9 C           0.0329    2.6620   18.7108 C.ar    1  UNL1        0.1219
     10 C          -0.5259    3.4883   17.5906 C.ar    1  UNL1        0.0240
     11 C          -1.8428    4.1865   17.7583 C.ar    1  UNL1        0.0240
     12 C          -2.6010    4.0583   19.0462 C.ar    1  UNL1        0.1189
     13 N          -3.9180    4.7565   19.2139 N.ar    1  UNL1       -0.2826
     14 C          -4.1348    6.0807   19.8842 C.ar    1  UNL1        0.1826
     15 N          -5.6002    6.3957   19.8253 N.ar    1  UNL1       -0.2280
     16 C          -6.2891    5.2660   19.1186 C.ar    1  UNL1        0.0786
     17 C          -7.7594    5.1668   18.8389 C.3     1  UNL1        0.0538
     18 C          -5.2494    4.2530   18.7408 C.ar    1  UNL1        0.0963
     19 C          -2.3007    3.7913   22.6904 C.3     1  UNL1        0.2543
     20 O          -2.8003    3.1038   21.4544 O.3     1  UNL1       -0.4551
     21 N           3.6874   -1.1195   18.2354 N.pl3   1  UNL1       -0.2810
     22 H           3.9173   -1.4978   17.3560 H       1  UNL1        0.1551
     23 C           3.9950   -1.8884   19.4861 C.ar    1  UNL1        0.0782
     24 C           3.5959   -1.3368   20.8228 C.ar    1  UNL1        0.0208
     25 C           3.9034   -2.1057   22.0735 C.ar    1  UNL1        0.0728
     26 C           4.6100   -3.4261   21.9875 C.ar    1  UNL1        0.0062
     27 C           5.0090   -3.9776   20.6509 C.ar    1  UNL1        0.0309
     28 C           4.7015   -3.2087   19.4002 C.ar    1  UNL1        0.1535
     29 F           5.1005   -3.7602   18.0635 F       1  UNL1       -0.2029
     30 C           3.5044   -1.5542   23.4101 C.3     1  UNL1        0.4186
     31 F           3.1054   -1.0027   24.7467 F       1  UNL1       -0.1659
     32 F           4.4349   -2.5176   24.0854 F       1  UNL1       -0.1659
     33 F           2.5739   -0.5909   22.7348 F       1  UNL1       -0.1659
@<TRIPOS>BOND
     1    19    20    1
     2    20     7    1
     3     7     8   ar
     4     8     9   ar
     5     9     1    1
     6     1     2   ar
     7     2     3   ar
     8     3    21    1
     9    21    23    1
    10    23    24   ar
    11    24    25   ar
    12    25    30    1
    13    30    31    1
    14    30    32    1
    15    30    33    1
    16    25    26   ar
    17    26    27   ar
    18    27    28   ar
    19    28    29    1
    20     3     4   ar
    21     4     5    1
    22     4     6   ar
    23     9    10   ar
    24    10    11   ar
    25    11    12   ar
    26    12    13    1
    27    13    14   ar
    28    14    15   ar
    29    15    16   ar
    30    16    17    1
    31    16    18   ar
    32    12     7   ar
    33    18    13   ar
    34     6     1   ar
    35    28    23   ar
    36    21    22    1
