@<TRIPOS>MOLECULE
*****
 40 43 0 0 0
SMALL
GASTEIGER

@<TRIPOS>ATOM
      1 C           4.9989   -3.2947   22.5972 C.ar    1  UNL1        0.0611
      2 C           6.0373   -3.8806   23.5074 C.ar    1  UNL1        0.1037
      3 N           6.0087   -3.1149   24.7969 N.ar    1  UNL1       -0.2269
      4 C           4.9526   -2.0556   24.6837 C.ar    1  UNL1        0.1407
      5 N           4.4786   -1.0043   25.6428 N.ar    1  UNL1       -0.3374
      6 C           3.3806   -0.0642   25.2425 C.ar    1  UNL1        0.0734
      7 C           2.7565   -0.1753   23.8830 C.ar    1  UNL1        0.0171
      8 C           3.2305   -1.2266   22.9239 C.ar    1  UNL1        0.0046
      9 C           4.3285   -2.1668   23.3242 C.ar    1  UNL1        0.0386
     10 H           4.8882   -0.9314   26.5351 H       1  UNL1        0.1674
     11 C           1.6584    0.7649   23.4827 C.ar    1  UNL1        0.0015
     12 C           1.2426    0.8638   22.0449 C.ar    1  UNL1        0.0014
     13 C           0.1445    1.8040   21.6446 C.ar    1  UNL1        0.0158
     14 C          -0.5378    2.6454   22.6822 C.ar    1  UNL1        0.0644
     15 C          -0.1220    2.5465   24.1201 C.ar    1  UNL1        0.0158
     16 C           0.9761    1.6063   24.5203 C.ar    1  UNL1        0.0014
     17 N          -1.6358    3.5856   22.2819 N.pl3   1  UNL1       -0.2187
     18 H          -2.1494    4.0647   22.9718 H       1  UNL1        0.1734
     19 S          -1.9513    3.7958   20.8307 S.O2    1  UNL1        0.0558
     20 C          -2.2669    4.0059   19.3793 C.3     1  UNL1        0.1996
     21 O          -0.8866    4.8494   20.7518 O.2     1  UNL1       -0.1544
     22 O          -3.0161    2.7422   20.9096 O.2     1  UNL1       -0.1544
     23 C           4.6859   -3.7557   21.2046 C.2     1  UNL1        0.2015
     24 O           3.9896   -5.0663   20.9871 O.2     1  UNL1       -0.2864
     25 C           4.4266   -1.1835   18.1935 C.ar    1  UNL1        0.0920
     26 C           5.8354   -1.2065   17.6789 C.ar    1  UNL1        0.0204
     27 C           6.8610   -2.0793   18.3395 C.ar    1  UNL1        0.0312
     28 C           6.4779   -2.9290   19.5147 C.ar    1  UNL1        0.1454
     29 F           7.5035   -3.8017   20.1754 F       1  UNL1       -0.2040
     30 C           5.0691   -2.9059   20.0293 C.ar    1  UNL1        0.0951
     31 C           4.0435   -2.0332   19.3687 C.ar    1  UNL1        0.1598
     32 F           2.6347   -2.0102   19.8833 F       1  UNL1       -0.2026
     33 N           3.4010   -0.3107   17.5328 N.pl3   1  UNL1       -0.2166
     34 H           3.0100   -0.5776   16.6696 H       1  UNL1        0.1734
     35 S           2.9711    0.9686   18.1874 S.O2    1  UNL1        0.0540
     36 O           1.5682    0.4468   18.2859 O.2     1  UNL1       -0.1545
     37 O           4.3739    1.4904   18.0889 O.2     1  UNL1       -0.1545
     38 C           2.5413    2.2479   18.8420 C.3     1  UNL1        0.1724
     39 C           1.2595    4.3372   17.9805 C.3     1  UNL1        0.0019
     40 C           1.2578    2.9064   18.4308 C.3     1  UNL1        0.0273
@<TRIPOS>BOND
     1    39    40    1
     2    40    38    1
     3    38    35    1
     4    35    36    2
     5    35    37    2
     6    35    33    1
     7    33    25    1
     8    25    26   ar
     9    26    27   ar
    10    27    28   ar
    11    28    29    1
    12    28    30   ar
    13    30    23    1
    14    23    24    2
    15    23     1    1
    16     1     2   ar
    17     2     3   ar
    18     3     4   ar
    19     4     5   ar
    20     5     6   ar
    21     6     7   ar
    22     7    11    1
    23    11    12   ar
    24    12    13   ar
    25    13    14   ar
    26    14    17    1
    27    17    19    1
    28    19    20    1
    29    19    21    2
    30    19    22    2
    31    14    15   ar
    32    15    16   ar
    33     7     8   ar
    34     8     9   ar
    35    30    31   ar
    36    31    32    1
    37    31    25   ar
    38     9     1   ar
    39     9     4    1
    40    16    11   ar
    41    33    34    1
    42     5    10    1
    43    17    18    1
@<TRIPOS>MOLECULE
*****
 40 43 0 0 0
SMALL
GASTEIGER

@<TRIPOS>ATOM
      1 C           5.4834   -2.6182   19.4243 C.ar    1  UNL1        0.0611
      2 C           6.1477   -1.9828   18.2391 C.ar    1  UNL1        0.1037
      3 N           7.6287   -2.1751   18.3795 N.ar    1  UNL1       -0.2269
      4 C           7.8796   -2.9294   19.6515 C.ar    1  UNL1        0.1407
      5 N           9.1442   -3.4023   20.3052 N.ar    1  UNL1       -0.3374
      6 C           9.0828   -4.1490   21.6046 C.ar    1  UNL1        0.0734
      7 C           7.7569   -4.4228   22.2504 C.ar    1  UNL1        0.0171
      8 C           6.4924   -3.9499   21.5967 C.ar    1  UNL1        0.0046
      9 C           6.5537   -3.2033   20.2973 C.ar    1  UNL1        0.0386
     10 H          10.0144   -3.2226   19.8813 H       1  UNL1        0.1674
     11 C           7.6955   -5.1695   23.5500 C.ar    1  UNL1        0.0015
     12 C           7.0559   -4.5358   24.7496 C.ar    1  UNL1        0.0014
     13 C           6.9946   -5.2826   26.0492 C.ar    1  UNL1        0.0158
     14 C           7.5729   -6.6630   26.1489 C.ar    1  UNL1        0.0644
     15 C           8.2125   -7.2967   24.9491 C.ar    1  UNL1        0.0158
     16 C           8.2738   -6.5500   23.6497 C.ar    1  UNL1        0.0014
     17 N           7.5116   -7.4097   27.4484 N.pl3   1  UNL1       -0.2187
     18 H           6.8900   -8.1661   27.5526 H       1  UNL1        0.1734
     19 S           8.3973   -7.0041   28.5889 S.O2    1  UNL1        0.0558
     20 C           9.2831   -6.5985   29.7295 C.3     1  UNL1        0.1996
     21 O           7.2615   -6.2367   29.1980 O.2     1  UNL1       -0.1544
     22 O           9.5331   -7.7716   27.9799 O.2     1  UNL1       -0.1544
     23 C           4.0077   -2.6610   19.6901 C.2     1  UNL1        0.2015
     24 O           3.1946   -3.8303   19.2197 O.2     1  UNL1       -0.2864
     25 C           2.6715   -0.3959   22.6623 C.ar    1  UNL1        0.0920
     26 C           2.0202    0.7187   21.8985 C.ar    1  UNL1        0.0204
     27 C           2.0314    0.7068   20.3986 C.ar    1  UNL1        0.0312
     28 C           2.6939   -0.4197   19.6624 C.ar    1  UNL1        0.1454
     29 F           2.7051   -0.4317   18.1625 F       1  UNL1       -0.2040
     30 C           3.3452   -1.5344   20.4262 C.ar    1  UNL1        0.0951
     31 C           3.3340   -1.5224   21.9261 C.ar    1  UNL1        0.1598
     32 F           3.9853   -2.6371   22.6899 F       1  UNL1       -0.2026
     33 N           2.6603   -0.3840   24.1622 N.pl3   1  UNL1       -0.2166
     34 H           1.8118   -0.4949   24.6490 H       1  UNL1        0.1734
     35 S           3.9419   -0.2029   24.9203 S.O2    1  UNL1        0.0540
     36 O           4.1139    1.1544   24.3054 O.2     1  UNL1       -0.1545
     37 O           3.7698   -1.5602   25.5352 O.2     1  UNL1       -0.1545
     38 C           5.2234   -0.0220   25.6785 C.3     1  UNL1        0.1724
     39 C           6.9363   -0.9455   23.9570 C.3     1  UNL1        0.0019
     40 C           6.4108   -0.8817   25.3605 C.3     1  UNL1        0.0273
@<TRIPOS>BOND
     1    39    40    1
     2    40    38    1
     3    38    35    1
     4    35    36    2
     5    35    37    2
     6    35    33    1
     7    33    25    1
     8    25    26   ar
     9    26    27   ar
    10    27    28   ar
    11    28    29    1
    12    28    30   ar
    13    30    23    1
    14    23    24    2
    15    23     1    1
    16     1     2   ar
    17     2     3   ar
    18     3     4   ar
    19     4     5   ar
    20     5     6   ar
    21     6     7   ar
    22     7    11    1
    23    11    12   ar
    24    12    13   ar
    25    13    14   ar
    26    14    17    1
    27    17    19    1
    28    19    20    1
    29    19    21    2
    30    19    22    2
    31    14    15   ar
    32    15    16   ar
    33     7     8   ar
    34     8     9   ar
    35    30    31   ar
    36    31    32    1
    37    31    25   ar
    38     9     1   ar
    39     9     4    1
    40    16    11   ar
    41    33    34    1
    42     5    10    1
    43    17    18    1
@<TRIPOS>MOLECULE
*****
 40 43 0 0 0
SMALL
GASTEIGER

@<TRIPOS>ATOM
      1 C           5.0924   -3.4063   20.5894 C.ar    1  UNL1        0.0611
      2 C           6.2963   -4.2186   20.2144 C.ar    1  UNL1        0.1037
      3 N           7.1748   -4.3314   21.4250 N.ar    1  UNL1       -0.2269
      4 C           6.5138   -3.5887   22.5482 C.ar    1  UNL1        0.1407
      5 N           6.9176   -3.3593   23.9745 N.ar    1  UNL1       -0.3374
      6 C           6.0343   -2.5581   24.8843 C.ar    1  UNL1        0.0734
      7 C           4.7473   -1.9863   24.3679 C.ar    1  UNL1        0.0171
      8 C           4.3436   -2.2158   22.9416 C.ar    1  UNL1        0.0046
      9 C           5.2268   -3.0170   22.0318 C.ar    1  UNL1        0.0386
     10 H           7.7623   -3.7346   24.3134 H       1  UNL1        0.1674
     11 C           3.8640   -1.1851   25.2778 C.ar    1  UNL1        0.0015
     12 C           3.8430   -1.4753   26.7493 C.ar    1  UNL1        0.0014
     13 C           2.9597   -0.6740   27.6593 C.ar    1  UNL1        0.0158
     14 C           2.0976    0.4174   27.0976 C.ar    1  UNL1        0.0644
     15 C           2.1187    0.7076   25.6261 C.ar    1  UNL1        0.0158
     16 C           3.0019   -0.0936   24.7162 C.ar    1  UNL1        0.0014
     17 N           1.2143    1.2186   28.0075 N.pl3   1  UNL1       -0.2187
     18 H           1.4792    2.1282   28.2752 H       1  UNL1        0.1734
     19 S          -0.0726    0.6340   28.5095 S.O2    1  UNL1        0.0558
     20 C          -1.3595    0.0493   29.0115 C.3     1  UNL1        0.1996
     21 O           0.6054    0.2395   29.7880 O.2     1  UNL1       -0.1544
     22 O          -0.7505    1.0284   27.2310 O.2     1  UNL1       -0.1544
     23 C           3.9539   -3.0463   19.6815 C.2     1  UNL1        0.2015
     24 O           2.9638   -4.0946   19.2683 O.2     1  UNL1       -0.2864
     25 C           2.4725    0.5907   19.1088 C.ar    1  UNL1        0.0920
     26 C           3.5087    1.1785   18.1973 C.ar    1  UNL1        0.0204
     27 C           4.6932    0.3580   17.7805 C.ar    1  UNL1        0.0312
     28 C           4.8417   -1.0502   18.2752 C.ar    1  UNL1        0.1454
     29 F           6.0262   -1.8707   17.8584 F       1  UNL1       -0.2040
     30 C           3.8055   -1.6380   19.1867 C.ar    1  UNL1        0.0951
     31 C           2.6210   -0.8176   19.6035 C.ar    1  UNL1        0.1598
     32 F           1.5848   -1.4054   20.5151 F       1  UNL1       -0.2026
     33 N           1.2880    1.4111   19.5256 N.pl3   1  UNL1       -0.2166
     34 H           0.7140    1.8290   18.8435 H       1  UNL1        0.1734
     35 S           0.9779    1.5950   20.9816 S.O2    1  UNL1        0.0540
     36 O           2.3169    2.2398   21.1853 O.2     1  UNL1       -0.1545
     37 O          -0.3610    0.9502   20.7779 O.2     1  UNL1       -0.1545
     38 C           0.6678    1.7788   22.4376 C.3     1  UNL1        0.1724
     39 C          -0.7554    2.9919   24.2413 C.3     1  UNL1        0.0019
     40 C          -0.0925    2.9880   22.8957 C.3     1  UNL1        0.0273
@<TRIPOS>BOND
     1    39    40    1
     2    40    38    1
     3    38    35    1
     4    35    36    2
     5    35    37    2
     6    35    33    1
     7    33    25    1
     8    25    26   ar
     9    26    27   ar
    10    27    28   ar
    11    28    29    1
    12    28    30   ar
    13    30    23    1
    14    23    24    2
    15    23     1    1
    16     1     2   ar
    17     2     3   ar
    18     3     4   ar
    19     4     5   ar
    20     5     6   ar
    21     6     7   ar
    22     7    11    1
    23    11    12   ar
    24    12    13   ar
    25    13    14   ar
    26    14    17    1
    27    17    19    1
    28    19    20    1
    29    19    21    2
    30    19    22    2
    31    14    15   ar
    32    15    16   ar
    33     7     8   ar
    34     8     9   ar
    35    30    31   ar
    36    31    32    1
    37    31    25   ar
    38     9     1   ar
    39     9     4    1
    40    16    11   ar
    41    33    34    1
    42     5    10    1
    43    17    18    1
@<TRIPOS>MOLECULE
*****
 40 43 0 0 0
SMALL
GASTEIGER

@<TRIPOS>ATOM
      1 C           6.7123   -3.4240   29.9050 C.ar    1  UNL1        0.0611
      2 C           6.7977   -4.3512   31.0811 C.ar    1  UNL1        0.1037
      3 N           6.9674   -5.7472   30.5593 N.ar    1  UNL1       -0.2269
      4 C           6.9870   -5.6829   29.0608 C.ar    1  UNL1        0.1407
      5 N           7.1279   -6.7462   28.0123 N.ar    1  UNL1       -0.3374
      6 C           7.1113   -6.3737   26.5594 C.ar    1  UNL1        0.0734
      7 C           6.9536   -4.9379   26.1550 C.ar    1  UNL1        0.0171
      8 C           6.8127   -3.8745   27.2035 C.ar    1  UNL1        0.0046
      9 C           6.8293   -4.2471   28.6564 C.ar    1  UNL1        0.0386
     10 H           7.2314   -7.6886   28.2777 H       1  UNL1        0.1674
     11 C           6.9370   -4.5654   24.7021 C.ar    1  UNL1        0.0015
     12 C           7.9286   -5.1795   23.7590 C.ar    1  UNL1        0.0014
     13 C           7.9119   -4.8071   22.3060 C.ar    1  UNL1        0.0158
     14 C           6.9036   -3.8204   21.7962 C.ar    1  UNL1        0.0644
     15 C           5.9120   -3.2063   22.7394 C.ar    1  UNL1        0.0158
     16 C           5.9287   -3.5788   24.1923 C.ar    1  UNL1        0.0014
     17 N           6.8869   -3.4479   20.3433 N.pl3   1  UNL1       -0.2187
     18 H           7.7324   -3.2722   19.8704 H       1  UNL1        0.1734
     19 S           5.5821   -3.3432   19.6109 S.O2    1  UNL1        0.0558
     20 C           4.2772   -3.2384   18.8785 C.3     1  UNL1        0.1996
     21 O           5.7795   -1.8628   19.4711 O.2     1  UNL1       -0.1544
     22 O           5.3848   -4.8235   19.7508 O.2     1  UNL1       -0.1544
     23 C           6.5402   -1.9352   29.9667 C.2     1  UNL1        0.2015
     24 O           7.7241   -1.0347   29.7736 O.2     1  UNL1       -0.2864
     25 C           2.8624   -0.5810   29.3422 C.ar    1  UNL1        0.0920
     26 C           2.4719   -0.1703   30.7310 C.ar    1  UNL1        0.0204
     27 C           3.4376   -0.3479   31.8651 C.ar    1  UNL1        0.0312
     28 C           4.7936   -0.9361   31.6103 C.ar    1  UNL1        0.1454
     29 F           5.7593   -1.1137   32.7444 F       1  UNL1       -0.2040
     30 C           5.1841   -1.3469   30.2215 C.ar    1  UNL1        0.0951
     31 C           4.2184   -1.1693   29.0875 C.ar    1  UNL1        0.1598
     32 F           4.6090   -1.5801   27.6987 F       1  UNL1       -0.2026
     33 N           1.8967   -0.4035   28.2082 N.pl3   1  UNL1       -0.2166
     34 H           1.8697   -1.0622   27.4770 H       1  UNL1        0.1734
     35 S           0.9723    0.7777   28.1882 S.O2    1  UNL1        0.0540
     36 O           2.1218    1.6712   27.8273 O.2     1  UNL1       -0.1545
     37 O          -0.1771   -0.1159   28.5492 O.2     1  UNL1       -0.1545
     38 C           0.0479    1.9587   28.1683 C.3     1  UNL1        0.1724
     39 C          -0.6832    1.9570   25.6752 C.3     1  UNL1        0.0019
     40 C          -1.0321    2.0484   27.1312 C.3     1  UNL1        0.0273
@<TRIPOS>BOND
     1    39    40    1
     2    40    38    1
     3    38    35    1
     4    35    36    2
     5    35    37    2
     6    35    33    1
     7    33    25    1
     8    25    26   ar
     9    26    27   ar
    10    27    28   ar
    11    28    29    1
    12    28    30   ar
    13    30    23    1
    14    23    24    2
    15    23     1    1
    16     1     2   ar
    17     2     3   ar
    18     3     4   ar
    19     4     5   ar
    20     5     6   ar
    21     6     7   ar
    22     7    11    1
    23    11    12   ar
    24    12    13   ar
    25    13    14   ar
    26    14    17    1
    27    17    19    1
    28    19    20    1
    29    19    21    2
    30    19    22    2
    31    14    15   ar
    32    15    16   ar
    33     7     8   ar
    34     8     9   ar
    35    30    31   ar
    36    31    32    1
    37    31    25   ar
    38     9     1   ar
    39     9     4    1
    40    16    11   ar
    41    33    34    1
    42     5    10    1
    43    17    18    1
@<TRIPOS>MOLECULE
*****
 40 43 0 0 0
SMALL
GASTEIGER

@<TRIPOS>ATOM
      1 C          -0.1140    3.2667   20.6782 C.ar    1  UNL1        0.0611
      2 C          -1.1696    4.2368   21.1193 C.ar    1  UNL1        0.1037
      3 N          -1.3581    4.0758   22.5987 N.ar    1  UNL1       -0.2269
      4 C          -0.4189    3.0062   23.0719 C.ar    1  UNL1        0.1407
      5 N          -0.1646    2.4230   24.4303 N.ar    1  UNL1       -0.3374
      6 C           0.8587    1.3398   24.6017 C.ar    1  UNL1        0.0734
      7 C           1.6275    0.8396   23.4148 C.ar    1  UNL1        0.0171
      8 C           1.3732    1.4228   22.0565 C.ar    1  UNL1        0.0046
      9 C           0.3499    2.5061   21.8850 C.ar    1  UNL1        0.0386
     10 H          -0.6692    2.7513   25.2093 H       1  UNL1        0.1674
     11 C           2.6508   -0.2437   23.5863 C.ar    1  UNL1        0.0015
     12 C           3.0781   -1.0654   22.4064 C.ar    1  UNL1        0.0014
     13 C           4.1014   -2.1487   22.5779 C.ar    1  UNL1        0.0158
     14 C           4.6973   -2.4103   23.9293 C.ar    1  UNL1        0.0644
     15 C           4.2700   -1.5886   25.1093 C.ar    1  UNL1        0.0158
     16 C           3.2468   -0.5053   24.9377 C.ar    1  UNL1        0.0014
     17 N           5.7206   -3.4936   24.1009 N.pl3   1  UNL1       -0.2187
     18 H           5.5978   -4.1813   24.7946 H       1  UNL1        0.1734
     19 S           6.9308   -3.5291   23.2155 S.O2    1  UNL1        0.0558
     20 C           8.1411   -3.5646   22.3300 C.3     1  UNL1        0.1996
     21 O           7.5538   -2.4292   24.0230 O.2     1  UNL1       -0.1544
     22 O           6.3078   -4.6289   22.4079 O.2     1  UNL1       -0.1544
     23 C           0.3893    3.0883   19.2765 C.2     1  UNL1        0.2015
     24 O          -0.5189    3.3575   18.1135 O.2     1  UNL1       -0.2864
     25 C           3.4791    0.8957   18.0950 C.ar    1  UNL1        0.0920
     26 C           4.6242    1.7456   18.5601 C.ar    1  UNL1        0.0204
     27 C           4.3576    3.0431   19.2641 C.ar    1  UNL1        0.0312
     28 C           2.9461    3.4907   19.5029 C.ar    1  UNL1        0.1454
     29 F           2.6795    4.7882   20.2068 F       1  UNL1       -0.2040
     30 C           1.8010    2.6408   19.0377 C.ar    1  UNL1        0.0951
     31 C           2.0675    1.3433   18.3338 C.ar    1  UNL1        0.1598
     32 F           0.9223    0.4934   17.8686 F       1  UNL1       -0.2026
     33 N           3.7456   -0.4018   17.3911 N.pl3   1  UNL1       -0.2166
     34 H           3.5119   -0.5029   16.4401 H       1  UNL1        0.1734
     35 S           4.3681   -1.5451   18.1361 S.O2    1  UNL1        0.0540
     36 O           5.5820   -1.4555   17.2594 O.2     1  UNL1       -0.1545
     37 O           3.1543   -1.6348   19.0128 O.2     1  UNL1       -0.1545
     38 C           4.9906   -2.6885   18.8812 C.3     1  UNL1        0.1724
     39 C           4.5039   -5.2406   18.8704 C.3     1  UNL1        0.0019
     40 C           4.1468   -3.8519   19.3107 C.3     1  UNL1        0.0273
@<TRIPOS>BOND
     1    39    40    1
     2    40    38    1
     3    38    35    1
     4    35    36    2
     5    35    37    2
     6    35    33    1
     7    33    25    1
     8    25    26   ar
     9    26    27   ar
    10    27    28   ar
    11    28    29    1
    12    28    30   ar
    13    30    23    1
    14    23    24    2
    15    23     1    1
    16     1     2   ar
    17     2     3   ar
    18     3     4   ar
    19     4     5   ar
    20     5     6   ar
    21     6     7   ar
    22     7    11    1
    23    11    12   ar
    24    12    13   ar
    25    13    14   ar
    26    14    17    1
    27    17    19    1
    28    19    20    1
    29    19    21    2
    30    19    22    2
    31    14    15   ar
    32    15    16   ar
    33     7     8   ar
    34     8     9   ar
    35    30    31   ar
    36    31    32    1
    37    31    25   ar
    38     9     1   ar
    39     9     4    1
    40    16    11   ar
    41    33    34    1
    42     5    10    1
    43    17    18    1
@<TRIPOS>MOLECULE
*****
 40 43 0 0 0
SMALL
GASTEIGER

@<TRIPOS>ATOM
      1 C           3.8244   -1.9172   19.1302 C.ar    1  UNL1        0.0611
      2 C           3.9141   -1.5179   17.6871 C.ar    1  UNL1        0.1037
      3 N           3.3343   -0.1413   17.5503 N.ar    1  UNL1       -0.2269
      4 C           2.8862    0.3102   18.9088 C.ar    1  UNL1        0.1407
      5 N           2.2415    1.5789   19.3828 N.ar    1  UNL1       -0.3374
      6 C           1.8997    1.7499   20.8333 C.ar    1  UNL1        0.0734
      7 C           2.2027    0.6523   21.8097 C.ar    1  UNL1        0.0171
      8 C           2.8474   -0.6164   21.3357 C.ar    1  UNL1        0.0046
      9 C           3.1891   -0.7875   19.8852 C.ar    1  UNL1        0.0386
     10 H           2.0427    2.2993   18.7419 H       1  UNL1        0.1674
     11 C           1.8608    0.8234   23.2602 C.ar    1  UNL1        0.0015
     12 C           0.5201    1.3673   23.6557 C.ar    1  UNL1        0.0014
     13 C           0.1783    1.5384   25.1063 C.ar    1  UNL1        0.0158
     14 C           1.1773    1.1656   26.1612 C.ar    1  UNL1        0.0644
     15 C           2.5181    0.6217   25.7657 C.ar    1  UNL1        0.0158
     16 C           2.8599    0.4506   24.3152 C.ar    1  UNL1        0.0014
     17 N           0.8356    1.3367   27.6117 N.pl3   1  UNL1       -0.2187
     18 H           1.2819    2.0346   28.1436 H       1  UNL1        0.1734
     19 S          -0.1862    0.4444   28.2518 S.O2    1  UNL1        0.0558
     20 C          -1.2081   -0.4479   28.8918 C.3     1  UNL1        0.1996
     21 O          -1.2712    1.3994   27.8510 O.2     1  UNL1       -0.1544
     22 O           0.8987   -0.5106   28.6525 O.2     1  UNL1       -0.1544
     23 C           4.2885   -3.2180   19.7155 C.2     1  UNL1        0.2015
     24 O           3.4499   -4.4519   19.5605 O.2     1  UNL1       -0.2864
     25 C           6.9182   -3.7743   22.6354 C.ar    1  UNL1        0.0920
     26 C           8.1970   -3.4186   21.9367 C.ar    1  UNL1        0.0204
     27 C           8.1730   -2.9960   20.4977 C.ar    1  UNL1        0.0312
     28 C           6.8702   -2.9292   19.7573 C.ar    1  UNL1        0.1454
     29 F           6.8462   -2.5066   18.3182 F       1  UNL1       -0.2040
     30 C           5.5914   -3.2849   20.4560 C.ar    1  UNL1        0.0951
     31 C           5.6154   -3.7074   21.8950 C.ar    1  UNL1        0.1598
     32 F           4.3365   -4.0631   22.5936 F       1  UNL1       -0.2026
     33 N           6.9422   -4.1969   24.0745 N.pl3   1  UNL1       -0.2166
     34 H           6.3098   -3.7984   24.7151 H       1  UNL1        0.1734
     35 S           7.9298   -5.2266   24.5373 S.O2    1  UNL1        0.0540
     36 O           8.2619   -4.3739   25.7258 O.2     1  UNL1       -0.1545
     37 O           7.5976   -6.0794   23.3489 O.2     1  UNL1       -0.1545
     38 C           8.9173   -6.2564   25.0001 C.3     1  UNL1        0.1724
     39 C           7.2323   -7.8074   26.2272 C.3     1  UNL1        0.0019
     40 C           8.4488   -7.6334   25.3669 C.3     1  UNL1        0.0273
@<TRIPOS>BOND
     1    39    40    1
     2    40    38    1
     3    38    35    1
     4    35    36    2
     5    35    37    2
     6    35    33    1
     7    33    25    1
     8    25    26   ar
     9    26    27   ar
    10    27    28   ar
    11    28    29    1
    12    28    30   ar
    13    30    23    1
    14    23    24    2
    15    23     1    1
    16     1     2   ar
    17     2     3   ar
    18     3     4   ar
    19     4     5   ar
    20     5     6   ar
    21     6     7   ar
    22     7    11    1
    23    11    12   ar
    24    12    13   ar
    25    13    14   ar
    26    14    17    1
    27    17    19    1
    28    19    20    1
    29    19    21    2
    30    19    22    2
    31    14    15   ar
    32    15    16   ar
    33     7     8   ar
    34     8     9   ar
    35    30    31   ar
    36    31    32    1
    37    31    25   ar
    38     9     1   ar
    39     9     4    1
    40    16    11   ar
    41    33    34    1
    42     5    10    1
    43    17    18    1
@<TRIPOS>MOLECULE
*****
 40 43 0 0 0
SMALL
GASTEIGER

@<TRIPOS>ATOM
      1 C           1.0753    0.9537   22.4661 C.ar    1  UNL1        0.0611
      2 C           0.1334    1.8947   23.1569 C.ar    1  UNL1        0.1037
      3 N           0.4675    1.8943   24.6192 N.ar    1  UNL1       -0.2269
      4 C           1.6159    0.9532   24.8321 C.ar    1  UNL1        0.1407
      5 N           2.3681    0.5504   26.0658 N.ar    1  UNL1       -0.3374
      6 C           3.4960   -0.4337   25.9687 C.ar    1  UNL1        0.0734
      7 C           3.8716   -1.0150   24.6379 C.ar    1  UNL1        0.0171
      8 C           3.1194   -0.6123   23.4043 C.ar    1  UNL1        0.0046
      9 C           1.9916    0.3718   23.5014 C.ar    1  UNL1        0.0386
     10 H           2.1216    0.9320   26.9392 H       1  UNL1        0.1674
     11 C           4.9995   -1.9992   24.5408 C.ar    1  UNL1        0.0015
     12 C           4.9814   -3.0584   23.4789 C.ar    1  UNL1        0.0014
     13 C           6.1093   -4.0425   23.3818 C.ar    1  UNL1        0.0158
     14 C           7.2553   -3.9675   24.3467 C.ar    1  UNL1        0.0644
     15 C           7.2733   -2.9082   25.4088 C.ar    1  UNL1        0.0158
     16 C           6.1455   -1.9241   25.5058 C.ar    1  UNL1        0.0014
     17 N           8.3831   -4.9515   24.2497 N.pl3   1  UNL1       -0.2187
     18 H           9.2488   -4.6726   23.8727 H       1  UNL1        0.1734
     19 S           8.1921   -6.3606   24.7271 S.O2    1  UNL1        0.0558
     20 C           8.0011   -7.7698   25.2045 C.3     1  UNL1        0.1996
     21 O           8.1126   -6.8316   23.3052 O.2     1  UNL1       -0.1544
     22 O           8.2716   -5.8897   26.1490 O.2     1  UNL1       -0.1544
     23 C           1.0971    0.6482   20.9977 C.2     1  UNL1        0.2015
     24 O          -0.1718    0.2754   20.2902 O.2     1  UNL1       -0.2864
     25 C           4.3196   -0.4766   18.9726 C.ar    1  UNL1        0.0920
     26 C           4.9699    0.8503   18.7148 C.ar    1  UNL1        0.0204
     27 C           4.3292    2.1098   19.2179 C.ar    1  UNL1        0.0312
     28 C           3.0383    2.0425   19.9789 C.ar    1  UNL1        0.1454
     29 F           2.3977    3.3021   20.4820 F       1  UNL1       -0.2040
     30 C           2.3881    0.7156   20.2367 C.ar    1  UNL1        0.0951
     31 C           3.0287   -0.5439   19.7336 C.ar    1  UNL1        0.1598
     32 F           2.3784   -1.8708   19.9914 F       1  UNL1       -0.2026
     33 N           4.9603   -1.7361   18.4695 N.pl3   1  UNL1       -0.2166
     34 H           4.4397   -2.3693   17.9241 H       1  UNL1        0.1734
     35 S           6.3940   -2.0310   18.7973 S.O2    1  UNL1        0.0540
     36 O           6.7322   -2.0110   17.3361 O.2     1  UNL1       -0.1545
     37 O           6.0557   -2.0510   20.2585 O.2     1  UNL1       -0.1545
     38 C           7.8276   -2.3259   19.1253 C.3     1  UNL1        0.1724
     39 C           8.7567   -4.1656   20.7073 C.3     1  UNL1        0.0019
     40 C           8.2025   -2.7868   20.5026 C.3     1  UNL1        0.0273
@<TRIPOS>BOND
     1    39    40    1
     2    40    38    1
     3    38    35    1
     4    35    36    2
     5    35    37    2
     6    35    33    1
     7    33    25    1
     8    25    26   ar
     9    26    27   ar
    10    27    28   ar
    11    28    29    1
    12    28    30   ar
    13    30    23    1
    14    23    24    2
    15    23     1    1
    16     1     2   ar
    17     2     3   ar
    18     3     4   ar
    19     4     5   ar
    20     5     6   ar
    21     6     7   ar
    22     7    11    1
    23    11    12   ar
    24    12    13   ar
    25    13    14   ar
    26    14    17    1
    27    17    19    1
    28    19    20    1
    29    19    21    2
    30    19    22    2
    31    14    15   ar
    32    15    16   ar
    33     7     8   ar
    34     8     9   ar
    35    30    31   ar
    36    31    32    1
    37    31    25   ar
    38     9     1   ar
    39     9     4    1
    40    16    11   ar
    41    33    34    1
    42     5    10    1
    43    17    18    1
@<TRIPOS>MOLECULE
*****
 40 43 0 0 0
SMALL
GASTEIGER

@<TRIPOS>ATOM
      1 C          -0.1023    3.3045   24.3703 C.ar    1  UNL1        0.0611
      2 C          -1.2306    4.2254   24.0112 C.ar    1  UNL1        0.1037
      3 N          -1.6618    3.9059   22.6105 N.ar    1  UNL1       -0.2269
      4 C          -0.7999    2.7876   22.1039 C.ar    1  UNL1        0.1407
      5 N          -0.7683    2.0597   20.7928 N.ar    1  UNL1       -0.3374
      6 C           0.2272    0.9602   20.5692 C.ar    1  UNL1        0.0734
      7 C           1.1910    0.5885   21.6568 C.ar    1  UNL1        0.0171
      8 C           1.1594    1.3164   22.9680 C.ar    1  UNL1        0.0046
      9 C           0.1639    2.4159   23.1915 C.ar    1  UNL1        0.0386
     10 H          -1.4009    2.3036   20.0789 H       1  UNL1        0.1674
     11 C           2.1865   -0.5111   21.4333 C.ar    1  UNL1        0.0015
     12 C           2.2867   -1.1703   20.0896 C.ar    1  UNL1        0.0014
     13 C           3.2822   -2.2699   19.8660 C.ar    1  UNL1        0.0158
     14 C           4.1775   -2.7102   20.9861 C.ar    1  UNL1        0.0644
     15 C           4.0772   -2.0510   22.3298 C.ar    1  UNL1        0.0158
     16 C           3.0818   -0.9514   22.5534 C.ar    1  UNL1        0.0014
     17 N           5.1730   -3.8098   20.7626 N.pl3   1  UNL1       -0.2187
     18 H           4.8724   -4.6852   20.4271 H       1  UNL1        0.1734
     19 S           6.6263   -3.5755   21.0503 S.O2    1  UNL1        0.0558
     20 C           8.0798   -3.3412   21.3379 C.3     1  UNL1        0.1996
     21 O           6.5603   -4.5565   22.1830 O.2     1  UNL1       -0.1544
     22 O           6.6924   -2.5945   19.9175 O.2     1  UNL1       -0.1544
     23 C           0.6311    3.2771   25.6785 C.2     1  UNL1        0.2015
     24 O           1.6290    4.3493   26.0015 O.2     1  UNL1       -0.2864
     25 C           1.2013    0.1298   28.0280 C.ar    1  UNL1        0.0920
     26 C          -0.1624   -0.0222   28.6341 C.ar    1  UNL1        0.0204
     27 C          -1.2615    0.9255   28.2549 C.ar    1  UNL1        0.0312
     28 C          -0.9971    2.0253   27.2698 C.ar    1  UNL1        0.1454
     29 F          -2.0962    2.9730   26.8907 F       1  UNL1       -0.2040
     30 C           0.3666    2.1773   26.6637 C.ar    1  UNL1        0.0951
     31 C           1.4657    1.2296   27.0428 C.ar    1  UNL1        0.1598
     32 F           2.8294    1.3817   26.4367 F       1  UNL1       -0.2026
     33 N           2.3004   -0.8179   28.4071 N.pl3   1  UNL1       -0.2166
     34 H           2.4370   -1.6450   27.8909 H       1  UNL1        0.1734
     35 S           3.1913   -0.5054   29.5726 S.O2    1  UNL1        0.0540
     36 O           4.3003   -0.1462   28.6286 O.2     1  UNL1       -0.1545
     37 O           2.0824   -0.8645   30.5167 O.2     1  UNL1       -0.1545
     38 C           4.0822   -0.1929   30.7382 C.3     1  UNL1        0.1724
     39 C           3.6260    0.4296   33.2191 C.3     1  UNL1        0.0019
     40 C           3.6726   -0.5946   32.1242 C.3     1  UNL1        0.0273
@<TRIPOS>BOND
     1    39    40    1
     2    40    38    1
     3    38    35    1
     4    35    36    2
     5    35    37    2
     6    35    33    1
     7    33    25    1
     8    25    26   ar
     9    26    27   ar
    10    27    28   ar
    11    28    29    1
    12    28    30   ar
    13    30    23    1
    14    23    24    2
    15    23     1    1
    16     1     2   ar
    17     2     3   ar
    18     3     4   ar
    19     4     5   ar
    20     5     6   ar
    21     6     7   ar
    22     7    11    1
    23    11    12   ar
    24    12    13   ar
    25    13    14   ar
    26    14    17    1
    27    17    19    1
    28    19    20    1
    29    19    21    2
    30    19    22    2
    31    14    15   ar
    32    15    16   ar
    33     7     8   ar
    34     8     9   ar
    35    30    31   ar
    36    31    32    1
    37    31    25   ar
    38     9     1   ar
    39     9     4    1
    40    16    11   ar
    41    33    34    1
    42     5    10    1
    43    17    18    1
@<TRIPOS>MOLECULE
*****
 40 43 0 0 0
SMALL
GASTEIGER

@<TRIPOS>ATOM
      1 C           6.8789   -3.9037   22.6368 C.ar    1  UNL1        0.0611
      2 C           7.6850   -4.3767   23.8100 C.ar    1  UNL1        0.1037
      3 N           7.1092   -3.7564   25.0484 N.ar    1  UNL1       -0.2269
      4 C           5.9472   -2.9000   24.6406 C.ar    1  UNL1        0.1407
      5 N           5.0003   -2.0491   25.4339 N.ar    1  UNL1       -0.3374
      6 C           3.9111   -1.2892   24.7367 C.ar    1  UNL1        0.0734
      7 C           3.7688   -1.3802   23.2463 C.ar    1  UNL1        0.0171
      8 C           4.7156   -2.2311   22.4530 C.ar    1  UNL1        0.0046
      9 C           5.8048   -2.9910   23.1502 C.ar    1  UNL1        0.0386
     10 H           5.0938   -1.9894   26.4121 H       1  UNL1        0.1674
     11 C           2.6795   -0.6202   22.5491 C.ar    1  UNL1        0.0015
     12 C           2.3464   -0.9288   21.1195 C.ar    1  UNL1        0.0014
     13 C           1.2571   -0.1688   20.4223 C.ar    1  UNL1        0.0158
     14 C           0.5010    0.8997   21.1548 C.ar    1  UNL1        0.0644
     15 C           0.8342    1.2083   22.5845 C.ar    1  UNL1        0.0158
     16 C           1.9234    0.4483   23.2816 C.ar    1  UNL1        0.0014
     17 N          -0.5883    1.6597   20.4577 N.pl3   1  UNL1       -0.2187
     18 H          -1.1835    1.1973   19.8244 H       1  UNL1        0.1734
     19 S          -0.7706    3.1243   20.7256 S.O2    1  UNL1        0.0558
     20 C          -0.9530    4.5889   20.9935 C.3     1  UNL1        0.1996
     21 O           0.5281    3.4127   20.0327 O.2     1  UNL1       -0.1544
     22 O          -2.0693    2.8359   21.4185 O.2     1  UNL1       -0.1544
     23 C           7.1067   -4.2776   21.2022 C.2     1  UNL1        0.2015
     24 O           7.9688   -5.4571   20.8623 O.2     1  UNL1       -0.2864
     25 C           6.5613   -1.4858   18.4347 C.ar    1  UNL1        0.0920
     26 C           5.2041   -1.8607   17.9176 C.ar    1  UNL1        0.0204
     27 C           4.4811   -3.0412   18.4953 C.ar    1  UNL1        0.0312
     28 C           5.1153   -3.8468   19.5901 C.ar    1  UNL1        0.1454
     29 F           4.3923   -5.0273   20.1678 F       1  UNL1       -0.2040
     30 C           6.4725   -3.4719   20.1072 C.ar    1  UNL1        0.0951
     31 C           7.1955   -2.2914   19.5295 C.ar    1  UNL1        0.1598
     32 F           8.5527   -1.9166   20.0468 F       1  UNL1       -0.2026
     33 N           7.2843   -0.3053   17.8570 N.pl3   1  UNL1       -0.2166
     34 H           8.1647   -0.4263   17.4334 H       1  UNL1        0.1734
     35 S           6.6658    1.0596   17.9247 S.O2    1  UNL1        0.0540
     36 O           6.8830    1.0844   19.4087 O.2     1  UNL1       -0.1545
     37 O           6.4486    1.0347   16.4407 O.2     1  UNL1       -0.1545
     38 C           6.0473    2.4244   17.9923 C.3     1  UNL1        0.1724
     39 C           3.7034    1.3484   18.3064 C.3     1  UNL1        0.0019
     40 C           4.5711    2.5686   18.2159 C.3     1  UNL1        0.0273
@<TRIPOS>BOND
     1    39    40    1
     2    40    38    1
     3    38    35    1
     4    35    36    2
     5    35    37    2
     6    35    33    1
     7    33    25    1
     8    25    26   ar
     9    26    27   ar
    10    27    28   ar
    11    28    29    1
    12    28    30   ar
    13    30    23    1
    14    23    24    2
    15    23     1    1
    16     1     2   ar
    17     2     3   ar
    18     3     4   ar
    19     4     5   ar
    20     5     6   ar
    21     6     7   ar
    22     7    11    1
    23    11    12   ar
    24    12    13   ar
    25    13    14   ar
    26    14    17    1
    27    17    19    1
    28    19    20    1
    29    19    21    2
    30    19    22    2
    31    14    15   ar
    32    15    16   ar
    33     7     8   ar
    34     8     9   ar
    35    30    31   ar
    36    31    32    1
    37    31    25   ar
    38     9     1   ar
    39     9     4    1
    40    16    11   ar
    41    33    34    1
    42     5    10    1
    43    17    18    1
