@<TRIPOS>MOLECULE
*****
 35 40 0 0 0
SMALL
GASTEIGER

@<TRIPOS>ATOM
      1 O           0.8133    1.7192   25.9931 O.2     1  UNL1       -0.2911
      2 C           1.8544    0.9583   26.7595 C.2     1  UNL1        0.1795
      3 C           1.9798    1.1450   28.2425 C.3     1  UNL1        0.1092
      4 C           3.0209    0.3841   29.0088 C.3     1  UNL1        0.1436
      5 C           4.0619   -0.3769   29.7751 C.3     1  UNL1        0.0620
      6 C           4.1874   -0.1901   31.2581 C.3     1  UNL1        0.0985
      7 N           3.2718    0.7575   31.9748 N.am    1  UNL1       -0.2640
      8 C           3.3973    0.9443   33.4579 C.2     1  UNL1        0.3039
      9 O           2.4818    1.8919   34.1747 O.2     1  UNL1       -0.2526
     10 N           4.4383    0.1833   34.2242 N.am    1  UNL1       -0.2901
     11 C           2.2308    1.5185   31.2086 C.3     1  UNL1        0.0985
     12 C           2.1053    1.3317   29.7256 C.3     1  UNL1        0.0620
     13 O           3.9364   -0.5636   28.2921 O.3     1  UNL1       -0.4819
     14 C           3.8109   -0.7503   26.8090 C.ar    1  UNL1        0.1409
     15 C           4.7265   -1.6980   26.0923 C.ar    1  UNL1        0.0370
     16 C           4.6010   -1.8847   24.6093 C.ar    1  UNL1        0.0031
     17 C           3.5600   -1.1238   23.8429 C.ar    1  UNL1        0.0004
     18 C           2.6444   -0.1761   24.5597 C.ar    1  UNL1        0.0059
     19 C           2.7699    0.0106   26.0428 C.ar    1  UNL1        0.0687
     20 H           5.0393   -0.4386   33.7538 H       1  UNL1        0.1509
     21 C           3.4345   -1.3105   22.3599 C.ar    1  UNL1        0.0031
     22 C           2.5009   -0.4412   21.5709 C.ar    1  UNL1        0.0207
     23 C           2.3754   -0.6279   20.0878 C.ar    1  UNL1        0.0989
     24 N           3.1835   -1.6840   19.3939 N.ar    1  UNL1       -0.2423
     25 C           4.1172   -2.5533   20.1830 C.ar    1  UNL1        0.0989
     26 C           4.2426   -2.3666   21.6660 C.ar    1  UNL1        0.0207
     27 C           4.5639    0.3701   35.7073 C.3     1  UNL1        0.0774
     28 C           5.3792    0.2820   36.9632 C.3     1  UNL1        0.0259
     29 C           3.9660    0.7815   37.0200 C.3     1  UNL1        0.0420
     30 C           2.8048    1.3075   37.8106 C.ar    1  UNL1       -0.0208
     31 C           2.1350    0.4349   38.8303 C.ar    1  UNL1       -0.0042
     32 C           0.9739    0.9608   39.6210 C.ar    1  UNL1       -0.0003
     33 C           0.4826    2.3595   39.3919 C.ar    1  UNL1       -0.0000
     34 C           1.1524    3.2321   38.3721 C.ar    1  UNL1       -0.0003
     35 C           2.3136    2.7061   37.5815 C.ar    1  UNL1       -0.0042
@<TRIPOS>BOND
     1     1     2    2
     2     2     3    1
     3     3     4    1
     4     4     5    1
     5     5     6    1
     6     6     7    1
     7     7     8   am
     8     8     9    2
     9     8    10   am
    10    27    10    1
    11    27    28    1
    12    28    29    1
    13    29    30    1
    14    30    31   ar
    15    31    32   ar
    16    32    33   ar
    17    33    34   ar
    18    34    35   ar
    19     7    11    1
    20    11    12    1
    21     4    13    1
    22    13    14    1
    23    14    15   ar
    24    15    16   ar
    25    16    17   ar
    26    17    21    1
    27    21    22   ar
    28    22    23   ar
    29    23    24   ar
    30    24    25   ar
    31    25    26   ar
    32    17    18   ar
    33    18    19   ar
    34    19     2    1
    35    12     4    1
    36    19    14   ar
    37    29    27    1
    38    35    30   ar
    39    26    21   ar
    40    10    20    1
@<TRIPOS>MOLECULE
*****
 35 40 0 0 0
SMALL
GASTEIGER

@<TRIPOS>ATOM
      1 O           7.3105   -5.9807   30.3327 O.2     1  UNL1       -0.2911
      2 C           6.9011   -4.5603   30.0778 C.2     1  UNL1        0.1795
      3 C           6.4845   -3.6831   31.2210 C.3     1  UNL1        0.1092
      4 C           6.0751   -2.2627   30.9661 C.3     1  UNL1        0.1436
      5 C           5.6657   -0.8424   30.7111 C.3     1  UNL1        0.0620
      6 C           5.2490    0.0347   31.8543 C.3     1  UNL1        0.0985
      7 N           5.2417   -0.5085   33.2525 N.am    1  UNL1       -0.2640
      8 C           4.8250    0.3688   34.3957 C.2     1  UNL1        0.3039
      9 O           4.8177   -0.1744   35.7939 O.2     1  UNL1       -0.2526
     10 N           4.4156    1.7891   34.1408 N.am    1  UNL1       -0.2901
     11 C           5.6511   -1.9288   33.5075 C.3     1  UNL1        0.0985
     12 C           6.0677   -2.8059   32.3643 C.3     1  UNL1        0.0620
     13 O           6.0824   -1.7195   29.5679 O.3     1  UNL1       -0.4819
     14 C           6.4991   -2.5968   28.4247 C.ar    1  UNL1        0.1409
     15 C           6.5064   -2.0536   27.0265 C.ar    1  UNL1        0.0370
     16 C           6.9231   -2.9307   25.8833 C.ar    1  UNL1        0.0031
     17 C           7.3325   -4.3511   26.1382 C.ar    1  UNL1        0.0004
     18 C           7.3252   -4.8943   27.5364 C.ar    1  UNL1        0.0059
     19 C           6.9085   -4.0171   28.6796 C.ar    1  UNL1        0.0687
     20 H           4.4204    2.1456   33.2231 H       1  UNL1        0.1509
     21 C           7.7492   -5.2282   24.9950 C.ar    1  UNL1        0.0031
     22 C           8.0062   -4.6284   23.6445 C.ar    1  UNL1        0.0207
     23 C           8.4229   -5.5055   22.5012 C.ar    1  UNL1        0.0989
     24 N           8.5826   -6.9825   22.7085 N.ar    1  UNL1       -0.2423
     25 C           8.3255   -7.5824   24.0592 C.ar    1  UNL1        0.0989
     26 C           7.9089   -6.7052   25.2024 C.ar    1  UNL1        0.0207
     27 C           3.9989    2.6663   35.2840 C.3     1  UNL1        0.0774
     28 C           4.0221    3.9970   35.9758 C.3     1  UNL1        0.0259
     29 C           3.2540    2.8549   36.5722 C.3     1  UNL1        0.0420
     30 C           2.3805    2.3045   37.6603 C.ar    1  UNL1       -0.0208
     31 C           1.2465    3.1253   38.1992 C.ar    1  UNL1       -0.0042
     32 C           0.3730    2.5749   39.2872 C.ar    1  UNL1       -0.0003
     33 C           0.6334    1.2035   39.8365 C.ar    1  UNL1       -0.0000
     34 C           1.7674    0.3826   39.2976 C.ar    1  UNL1       -0.0003
     35 C           2.6409    0.9332   38.2094 C.ar    1  UNL1       -0.0042
@<TRIPOS>BOND
     1     1     2    2
     2     2     3    1
     3     3     4    1
     4     4     5    1
     5     5     6    1
     6     6     7    1
     7     7     8   am
     8     8     9    2
     9     8    10   am
    10    27    10    1
    11    27    28    1
    12    28    29    1
    13    29    30    1
    14    30    31   ar
    15    31    32   ar
    16    32    33   ar
    17    33    34   ar
    18    34    35   ar
    19     7    11    1
    20    11    12    1
    21     4    13    1
    22    13    14    1
    23    14    15   ar
    24    15    16   ar
    25    16    17   ar
    26    17    21    1
    27    21    22   ar
    28    22    23   ar
    29    23    24   ar
    30    24    25   ar
    31    25    26   ar
    32    17    18   ar
    33    18    19   ar
    34    19     2    1
    35    12     4    1
    36    19    14   ar
    37    29    27    1
    38    35    30   ar
    39    26    21   ar
    40    10    20    1
@<TRIPOS>MOLECULE
*****
 35 40 0 0 0
SMALL
GASTEIGER

@<TRIPOS>ATOM
      1 O          -0.0603    3.9664   32.3746 O.2     1  UNL1       -0.2911
      2 C           0.8687    2.9975   31.7049 C.2     1  UNL1        0.1795
      3 C           0.7766    2.7708   30.2251 C.3     1  UNL1        0.1092
      4 C           1.7056    1.8020   29.5554 C.3     1  UNL1        0.1436
      5 C           2.6346    0.8332   28.8859 C.3     1  UNL1        0.0620
      6 C           2.5425    0.6065   27.4060 C.3     1  UNL1        0.0985
      7 N           1.5214    1.3486   26.5957 N.am    1  UNL1       -0.2640
      8 C           1.4293    1.1218   25.1157 C.2     1  UNL1        0.3039
      9 O           0.4081    1.8639   24.3054 O.2     1  UNL1       -0.2526
     10 N           2.3583    0.1530   24.4462 N.am    1  UNL1       -0.2901
     11 C           0.5924    2.3174   27.2652 C.3     1  UNL1        0.0985
     12 C           0.6845    2.5441   28.7451 C.3     1  UNL1        0.0620
     13 O           2.7268    1.0599   30.3657 O.3     1  UNL1       -0.4819
     14 C           2.8189    1.2867   31.8457 C.ar    1  UNL1        0.1409
     15 C           3.8400    0.5446   32.6560 C.ar    1  UNL1        0.0370
     16 C           3.9321    0.7713   34.1359 C.ar    1  UNL1        0.0031
     17 C           3.0031    1.7401   34.8055 C.ar    1  UNL1        0.0004
     18 C           1.9820    2.4822   33.9952 C.ar    1  UNL1        0.0059
     19 C           1.8899    2.2554   32.5152 C.ar    1  UNL1        0.0687
     20 H           3.0285   -0.3340   24.9780 H       1  UNL1        0.1509
     21 C           3.0952    1.9668   36.2854 C.ar    1  UNL1        0.0031
     22 C           3.8722    1.0128   37.1433 C.ar    1  UNL1        0.0207
     23 C           3.9644    1.2395   38.6233 C.ar    1  UNL1        0.0989
     24 N           3.2795    2.4202   39.2452 N.ar    1  UNL1       -0.2423
     25 C           2.5025    3.3743   38.3872 C.ar    1  UNL1        0.0989
     26 C           2.4104    3.1476   36.9073 C.ar    1  UNL1        0.0207
     27 C           2.2662   -0.0737   22.9662 C.3     1  UNL1        0.0774
     28 C           1.6967    0.2952   21.6285 C.3     1  UNL1        0.0259
     29 C           2.6761   -0.8353   21.7407 C.3     1  UNL1        0.0420
     30 C           3.4782   -1.9278   21.0980 C.ar    1  UNL1       -0.0208
     31 C           4.5427   -2.6370   21.8815 C.ar    1  UNL1       -0.0042
     32 C           5.3448   -3.7294   21.2388 C.ar    1  UNL1       -0.0003
     33 C           5.0826   -4.1127   19.8124 C.ar    1  UNL1       -0.0000
     34 C           4.0181   -3.4034   19.0289 C.ar    1  UNL1       -0.0003
     35 C           3.2160   -2.3109   19.6717 C.ar    1  UNL1       -0.0042
@<TRIPOS>BOND
     1     1     2    2
     2     2     3    1
     3     3     4    1
     4     4     5    1
     5     5     6    1
     6     6     7    1
     7     7     8   am
     8     8     9    2
     9     8    10   am
    10    27    10    1
    11    27    28    1
    12    28    29    1
    13    29    30    1
    14    30    31   ar
    15    31    32   ar
    16    32    33   ar
    17    33    34   ar
    18    34    35   ar
    19     7    11    1
    20    11    12    1
    21     4    13    1
    22    13    14    1
    23    14    15   ar
    24    15    16   ar
    25    16    17   ar
    26    17    21    1
    27    21    22   ar
    28    22    23   ar
    29    23    24   ar
    30    24    25   ar
    31    25    26   ar
    32    17    18   ar
    33    18    19   ar
    34    19     2    1
    35    12     4    1
    36    19    14   ar
    37    29    27    1
    38    35    30   ar
    39    26    21   ar
    40    10    20    1
@<TRIPOS>MOLECULE
*****
 35 40 0 0 0
SMALL
GASTEIGER

@<TRIPOS>ATOM
      1 O           0.5360    0.5874   18.2320 O.2     1  UNL1       -0.2911
      2 C           1.0817    0.3762   19.6132 C.2     1  UNL1        0.1795
      3 C           2.1723   -0.6276   19.8434 C.3     1  UNL1        0.1092
      4 C           2.7180   -0.8388   21.2246 C.3     1  UNL1        0.1436
      5 C           3.2637   -1.0500   22.6057 C.3     1  UNL1        0.0620
      6 C           4.3543   -2.0537   22.8359 C.3     1  UNL1        0.0985
      7 N           4.8992   -2.8463   21.6849 N.am    1  UNL1       -0.2640
      8 C           5.9899   -3.8501   21.9151 C.2     1  UNL1        0.3039
      9 O           6.5349   -4.6427   20.7641 O.2     1  UNL1       -0.2526
     10 N           6.5355   -4.0612   23.2962 N.am    1  UNL1       -0.2901
     11 C           4.3536   -2.6351   20.3037 C.3     1  UNL1        0.0985
     12 C           3.2630   -1.6314   20.0736 C.3     1  UNL1        0.0620
     13 O           2.1730   -0.0462   22.3756 O.3     1  UNL1       -0.4819
     14 C           1.0824    0.9576   22.1454 C.ar    1  UNL1        0.1409
     15 C           0.5374    1.7502   23.2964 C.ar    1  UNL1        0.0370
     16 C          -0.5532    2.7539   23.0662 C.ar    1  UNL1        0.0031
     17 C          -1.0989    2.9651   21.6850 C.ar    1  UNL1        0.0004
     18 C          -0.5539    2.1725   20.5340 C.ar    1  UNL1        0.0059
     19 C           0.5367    1.1687   20.7642 C.ar    1  UNL1        0.0687
     20 H           6.1779   -3.5410   24.0517 H       1  UNL1        0.1509
     21 C          -2.1895    3.9689   21.4549 C.ar    1  UNL1        0.0031
     22 C          -2.2385    5.2243   22.2743 C.ar    1  UNL1        0.0207
     23 C          -3.3291    6.2281   22.0442 C.ar    1  UNL1        0.0989
     24 N          -4.3708    5.9764   20.9946 N.ar    1  UNL1       -0.2423
     25 C          -4.3218    4.7210   20.1751 C.ar    1  UNL1        0.0989
     26 C          -3.2312    3.7172   20.4053 C.ar    1  UNL1        0.0207
     27 C           7.6262   -5.0650   23.5264 C.3     1  UNL1        0.0774
     28 C           8.7862   -5.8641   23.0109 C.3     1  UNL1        0.0259
     29 C           8.3553   -6.0045   24.4407 C.3     1  UNL1        0.0420
     30 C           8.5273   -6.6280   25.7941 C.ar    1  UNL1       -0.0208
     31 C           9.1489   -5.8404   26.9091 C.ar    1  UNL1       -0.0042
     32 C           9.3210   -6.4638   28.2625 C.ar    1  UNL1       -0.0003
     33 C           8.8714   -7.8749   28.5009 C.ar    1  UNL1       -0.0000
     34 C           8.2498   -8.6625   27.3858 C.ar    1  UNL1       -0.0003
     35 C           8.0778   -8.0390   26.0324 C.ar    1  UNL1       -0.0042
@<TRIPOS>BOND
     1     1     2    2
     2     2     3    1
     3     3     4    1
     4     4     5    1
     5     5     6    1
     6     6     7    1
     7     7     8   am
     8     8     9    2
     9     8    10   am
    10    27    10    1
    11    27    28    1
    12    28    29    1
    13    29    30    1
    14    30    31   ar
    15    31    32   ar
    16    32    33   ar
    17    33    34   ar
    18    34    35   ar
    19     7    11    1
    20    11    12    1
    21     4    13    1
    22    13    14    1
    23    14    15   ar
    24    15    16   ar
    25    16    17   ar
    26    17    21    1
    27    21    22   ar
    28    22    23   ar
    29    23    24   ar
    30    24    25   ar
    31    25    26   ar
    32    17    18   ar
    33    18    19   ar
    34    19     2    1
    35    12     4    1
    36    19    14   ar
    37    29    27    1
    38    35    30   ar
    39    26    21   ar
    40    10    20    1
@<TRIPOS>MOLECULE
*****
 35 40 0 0 0
SMALL
GASTEIGER

@<TRIPOS>ATOM
      1 O           0.9535    3.1187   31.6314 O.2     1  UNL1       -0.2911
      2 C           1.9204    2.0285   31.2753 C.2     1  UNL1        0.1795
      3 C           2.0426    1.5697   29.8524 C.3     1  UNL1        0.1092
      4 C           3.0096    0.4796   29.4963 C.3     1  UNL1        0.1436
      5 C           3.9764   -0.6105   29.1403 C.3     1  UNL1        0.0620
      6 C           4.0987   -1.0693   27.7175 C.3     1  UNL1        0.0985
      7 N           3.2541   -0.4380   26.6507 N.am    1  UNL1       -0.2640
      8 C           3.3764   -0.8969   25.2278 C.2     1  UNL1        0.3039
      9 O           2.5317   -0.2656   24.1610 O.2     1  UNL1       -0.2526
     10 N           4.3432   -1.9869   24.8717 N.am    1  UNL1       -0.2901
     11 C           2.2872    0.6521   27.0067 C.3     1  UNL1        0.0985
     12 C           2.1649    1.1109   28.4295 C.3     1  UNL1        0.0620
     13 O           3.8542   -0.1517   30.5631 O.3     1  UNL1       -0.4819
     14 C           3.7319    0.3072   31.9861 C.ar    1  UNL1        0.1409
     15 C           4.5765   -0.3241   33.0529 C.ar    1  UNL1        0.0370
     16 C           4.4543    0.1347   34.4757 C.ar    1  UNL1        0.0031
     17 C           3.4874    1.2248   34.8318 C.ar    1  UNL1        0.0004
     18 C           2.6427    1.8561   33.7650 C.ar    1  UNL1        0.0059
     19 C           2.7650    1.3972   32.3421 C.ar    1  UNL1        0.0687
     20 H           4.8976   -2.4013   25.5719 H       1  UNL1        0.1509
     21 C           3.3651    1.6836   36.2546 C.ar    1  UNL1        0.0031
     22 C           3.9589    0.8629   37.3609 C.ar    1  UNL1        0.0207
     23 C           3.8367    1.3217   38.7838 C.ar    1  UNL1        0.0989
     24 N           3.1206    2.6012   39.1004 N.ar    1  UNL1       -0.2423
     25 C           2.5268    3.4219   37.9940 C.ar    1  UNL1        0.0989
     26 C           2.6491    2.9631   36.5712 C.ar    1  UNL1        0.0207
     27 C           4.4655   -2.4458   23.4488 C.3     1  UNL1        0.0774
     28 C           4.9194   -3.4661   22.4474 C.3     1  UNL1        0.0259
     29 C           4.2234   -2.2202   21.9858 C.3     1  UNL1        0.0420
     30 C           3.6818   -1.3706   20.8746 C.ar    1  UNL1       -0.0208
     31 C           2.2069   -1.1158   20.7759 C.ar    1  UNL1       -0.0042
     32 C           1.6653   -0.2662   19.6647 C.ar    1  UNL1       -0.0003
     33 C           2.5986    0.3286   18.6522 C.ar    1  UNL1       -0.0000
     34 C           4.0735    0.0739   18.7509 C.ar    1  UNL1       -0.0003
     35 C           4.6151   -0.7758   19.8621 C.ar    1  UNL1       -0.0042
@<TRIPOS>BOND
     1     1     2    2
     2     2     3    1
     3     3     4    1
     4     4     5    1
     5     5     6    1
     6     6     7    1
     7     7     8   am
     8     8     9    2
     9     8    10   am
    10    27    10    1
    11    27    28    1
    12    28    29    1
    13    29    30    1
    14    30    31   ar
    15    31    32   ar
    16    32    33   ar
    17    33    34   ar
    18    34    35   ar
    19     7    11    1
    20    11    12    1
    21     4    13    1
    22    13    14    1
    23    14    15   ar
    24    15    16   ar
    25    16    17   ar
    26    17    21    1
    27    21    22   ar
    28    22    23   ar
    29    23    24   ar
    30    24    25   ar
    31    25    26   ar
    32    17    18   ar
    33    18    19   ar
    34    19     2    1
    35    12     4    1
    36    19    14   ar
    37    29    27    1
    38    35    30   ar
    39    26    21   ar
    40    10    20    1
@<TRIPOS>MOLECULE
*****
 35 40 0 0 0
SMALL
GASTEIGER

@<TRIPOS>ATOM
      1 O           5.5571   -4.6964   20.4263 O.2     1  UNL1       -0.2911
      2 C           5.0546   -3.5484   21.2507 C.2     1  UNL1        0.1795
      3 C           4.1402   -2.5291   20.6385 C.3     1  UNL1        0.1092
      4 C           3.6377   -1.3810   21.4629 C.3     1  UNL1        0.1436
      5 C           3.1352   -0.2331   22.2873 C.3     1  UNL1        0.0620
      6 C           2.2209    0.7863   21.6751 C.3     1  UNL1        0.0985
      7 N           1.8090    0.6577   20.2385 N.am    1  UNL1       -0.2640
      8 C           0.8946    1.6771   19.6263 C.2     1  UNL1        0.3039
      9 O           0.4827    1.5485   18.1897 O.2     1  UNL1       -0.2526
     10 N           0.3921    2.8250   20.4507 N.am    1  UNL1       -0.2901
     11 C           2.3115   -0.4903   19.4141 C.3     1  UNL1        0.0985
     12 C           3.2258   -1.5096   20.0263 C.3     1  UNL1        0.0620
     13 O           4.0496   -1.2524   22.8995 O.3     1  UNL1       -0.4819
     14 C           4.9640   -2.2719   23.5117 C.ar    1  UNL1        0.1409
     15 C           5.3759   -2.1433   24.9483 C.ar    1  UNL1        0.0370
     16 C           6.2902   -3.1626   25.5605 C.ar    1  UNL1        0.0031
     17 C           6.7928   -4.3106   24.7361 C.ar    1  UNL1        0.0004
     18 C           6.3809   -4.4392   23.2995 C.ar    1  UNL1        0.0059
     19 C           5.4665   -3.4198   22.6873 C.ar    1  UNL1        0.0687
     20 H           0.6624    2.9094   21.3936 H       1  UNL1        0.1509
     21 C           7.7071   -5.3300   25.3483 C.ar    1  UNL1        0.0031
     22 C           8.0217   -6.5960   24.6079 C.ar    1  UNL1        0.0207
     23 C           8.9361   -7.6155   25.2201 C.ar    1  UNL1        0.0989
     24 N           9.5359   -7.3688   26.5727 N.ar    1  UNL1       -0.2423
     25 C           9.2213   -6.1026   27.3130 C.ar    1  UNL1        0.0989
     26 C           8.3069   -5.0833   26.7008 C.ar    1  UNL1        0.0207
     27 C          -0.5223    3.8445   19.8386 C.3     1  UNL1        0.0774
     28 C          -0.7348    5.1958   19.2232 C.3     1  UNL1        0.0259
     29 C          -1.8936    4.2588   19.3937 C.3     1  UNL1        0.0420
     30 C          -3.3543    3.9570   19.2353 C.ar    1  UNL1       -0.0208
     31 C          -3.9765    3.9571   17.8704 C.ar    1  UNL1       -0.0042
     32 C          -5.4372    3.6553   17.7120 C.ar    1  UNL1       -0.0003
     33 C          -6.2759    3.3534   18.9185 C.ar    1  UNL1       -0.0000
     34 C          -5.6537    3.3533   20.2834 C.ar    1  UNL1       -0.0003
     35 C          -4.1929    3.6551   20.4417 C.ar    1  UNL1       -0.0042
@<TRIPOS>BOND
     1     1     2    2
     2     2     3    1
     3     3     4    1
     4     4     5    1
     5     5     6    1
     6     6     7    1
     7     7     8   am
     8     8     9    2
     9     8    10   am
    10    27    10    1
    11    27    28    1
    12    28    29    1
    13    29    30    1
    14    30    31   ar
    15    31    32   ar
    16    32    33   ar
    17    33    34   ar
    18    34    35   ar
    19     7    11    1
    20    11    12    1
    21     4    13    1
    22    13    14    1
    23    14    15   ar
    24    15    16   ar
    25    16    17   ar
    26    17    21    1
    27    21    22   ar
    28    22    23   ar
    29    23    24   ar
    30    24    25   ar
    31    25    26   ar
    32    17    18   ar
    33    18    19   ar
    34    19     2    1
    35    12     4    1
    36    19    14   ar
    37    29    27    1
    38    35    30   ar
    39    26    21   ar
    40    10    20    1
@<TRIPOS>MOLECULE
*****
 35 40 0 0 0
SMALL
GASTEIGER

@<TRIPOS>ATOM
      1 O           6.4451   -1.1724   33.3241 O.2     1  UNL1       -0.2911
      2 C           5.4333   -0.6563   32.3443 C.2     1  UNL1        0.1795
      3 C           5.5105   -1.0625   30.9024 C.3     1  UNL1        0.1092
      4 C           4.4986   -0.5464   29.9226 C.3     1  UNL1        0.1436
      5 C           3.4868   -0.0303   28.9429 C.3     1  UNL1        0.0620
      6 C           3.5640   -0.4365   27.5011 C.3     1  UNL1        0.0985
      7 N           4.6530   -1.3587   27.0389 N.am    1  UNL1       -0.2640
      8 C           4.7302   -1.7649   25.5969 C.2     1  UNL1        0.3039
      9 O           5.8192   -2.6871   25.1348 O.2     1  UNL1       -0.2526
     10 N           3.7184   -1.2488   24.6172 N.am    1  UNL1       -0.2901
     11 C           5.6648   -1.8748   28.0186 C.3     1  UNL1        0.0985
     12 C           5.5876   -1.4686   29.4605 C.3     1  UNL1        0.0620
     13 O           3.4096    0.3758   30.3848 O.3     1  UNL1       -0.4819
     14 C           3.3325    0.7820   31.8268 C.ar    1  UNL1        0.1409
     15 C           2.2435    1.7042   32.2889 C.ar    1  UNL1        0.0370
     16 C           2.1663    2.1104   33.7308 C.ar    1  UNL1        0.0031
     17 C           3.1781    1.5943   34.7106 C.ar    1  UNL1        0.0004
     18 C           4.2671    0.6720   34.2484 C.ar    1  UNL1        0.0059
     19 C           4.3443    0.2659   32.8065 C.ar    1  UNL1        0.0687
     20 H           3.0036   -0.6435   24.9206 H       1  UNL1        0.1509
     21 C           3.1009    2.0004   36.1524 C.ar    1  UNL1        0.0031
     22 C           2.4503    3.2974   36.5324 C.ar    1  UNL1        0.0207
     23 C           2.3731    3.7037   37.9744 C.ar    1  UNL1        0.0989
     24 N           2.9465    2.8128   39.0363 N.ar    1  UNL1       -0.2423
     25 C           3.5971    1.5157   38.6562 C.ar    1  UNL1        0.0989
     26 C           3.6743    1.1096   37.2143 C.ar    1  UNL1        0.0207
     27 C           3.7955   -1.6549   23.1753 C.3     1  UNL1        0.0774
     28 C           4.3272   -2.5662   22.1091 C.3     1  UNL1        0.0259
     29 C           3.3976   -1.4471   21.7440 C.3     1  UNL1        0.0420
     30 C           2.6311   -0.6809   20.7070 C.ar    1  UNL1       -0.0208
     31 C           1.2080   -0.2843   20.9670 C.ar    1  UNL1       -0.0042
     32 C           0.4416    0.4819   19.9300 C.ar    1  UNL1       -0.0003
     33 C           1.0981    0.8514   18.6329 C.ar    1  UNL1       -0.0000
     34 C           2.5212    0.4548   18.3729 C.ar    1  UNL1       -0.0003
     35 C           3.2877   -0.3114   19.4100 C.ar    1  UNL1       -0.0042
@<TRIPOS>BOND
     1     1     2    2
     2     2     3    1
     3     3     4    1
     4     4     5    1
     5     5     6    1
     6     6     7    1
     7     7     8   am
     8     8     9    2
     9     8    10   am
    10    27    10    1
    11    27    28    1
    12    28    29    1
    13    29    30    1
    14    30    31   ar
    15    31    32   ar
    16    32    33   ar
    17    33    34   ar
    18    34    35   ar
    19     7    11    1
    20    11    12    1
    21     4    13    1
    22    13    14    1
    23    14    15   ar
    24    15    16   ar
    25    16    17   ar
    26    17    21    1
    27    21    22   ar
    28    22    23   ar
    29    23    24   ar
    30    24    25   ar
    31    25    26   ar
    32    17    18   ar
    33    18    19   ar
    34    19     2    1
    35    12     4    1
    36    19    14   ar
    37    29    27    1
    38    35    30   ar
    39    26    21   ar
    40    10    20    1
@<TRIPOS>MOLECULE
*****
 35 40 0 0 0
SMALL
GASTEIGER

@<TRIPOS>ATOM
      1 O          -3.0748    3.4498   26.8789 O.2     1  UNL1       -0.2911
      2 C          -1.7641    2.8308   26.4927 C.2     1  UNL1        0.1795
      3 C          -0.8988    2.1929   27.5387 C.3     1  UNL1        0.1092
      4 C           0.4119    1.5739   27.1525 C.3     1  UNL1        0.1436
      5 C           1.7225    0.9550   26.7662 C.3     1  UNL1        0.0620
      6 C           2.5878    0.3171   27.8122 C.3     1  UNL1        0.0985
      7 N           2.1426    0.2981   29.2445 N.am    1  UNL1       -0.2640
      8 C           3.0080   -0.3399   30.2905 C.2     1  UNL1        0.3039
      9 O           2.5628   -0.3588   31.7228 O.2     1  UNL1       -0.2526
     10 N           4.3186   -0.9588   29.9042 N.am    1  UNL1       -0.2901
     11 C           0.8320    0.9170   29.6307 C.3     1  UNL1        0.0985
     12 C          -0.0333    1.5550   28.5847 C.3     1  UNL1        0.0620
     13 O           0.8571    1.5929   25.7202 O.3     1  UNL1       -0.4819
     14 C          -0.0083    2.2309   24.6741 C.ar    1  UNL1        0.1409
     15 C           0.4369    2.2499   23.2419 C.ar    1  UNL1        0.0370
     16 C          -0.4284    2.8878   22.1959 C.ar    1  UNL1        0.0031
     17 C          -1.7391    3.5068   22.5821 C.ar    1  UNL1        0.0004
     18 C          -2.1843    3.4878   24.0144 C.ar    1  UNL1        0.0059
     19 C          -1.3189    2.8498   25.0604 C.ar    1  UNL1        0.0687
     20 H           4.6108   -0.9463   28.9642 H       1  UNL1        0.1509
     21 C          -2.6044    4.1447   21.5361 C.ar    1  UNL1        0.0031
     22 C          -3.2127    3.3053   20.4520 C.ar    1  UNL1        0.0207
     23 C          -4.0781    3.9432   19.4059 C.ar    1  UNL1        0.0989
     24 N          -4.3352    5.4205   19.4440 N.ar    1  UNL1       -0.2423
     25 C          -3.7268    6.2599   20.5282 C.ar    1  UNL1        0.0989
     26 C          -2.8614    5.6220   21.5742 C.ar    1  UNL1        0.0207
     27 C           5.1840   -1.5968   30.9503 C.3     1  UNL1        0.0774
     28 C           6.1271   -2.6855   31.3688 C.3     1  UNL1        0.0259
     29 C           5.7398   -1.6130   32.3434 C.3     1  UNL1        0.0420
     30 C           5.8371   -1.0032   33.7104 C.ar    1  UNL1       -0.0208
     31 C           4.6276   -0.9510   34.5961 C.ar    1  UNL1       -0.0042
     32 C           4.7249   -0.3413   35.9631 C.ar    1  UNL1       -0.0003
     33 C           6.0316    0.2164   36.4444 C.ar    1  UNL1       -0.0000
     34 C           7.2410    0.1642   35.5587 C.ar    1  UNL1       -0.0003
     35 C           7.1437   -0.4457   34.1916 C.ar    1  UNL1       -0.0042
@<TRIPOS>BOND
     1     1     2    2
     2     2     3    1
     3     3     4    1
     4     4     5    1
     5     5     6    1
     6     6     7    1
     7     7     8   am
     8     8     9    2
     9     8    10   am
    10    27    10    1
    11    27    28    1
    12    28    29    1
    13    29    30    1
    14    30    31   ar
    15    31    32   ar
    16    32    33   ar
    17    33    34   ar
    18    34    35   ar
    19     7    11    1
    20    11    12    1
    21     4    13    1
    22    13    14    1
    23    14    15   ar
    24    15    16   ar
    25    16    17   ar
    26    17    21    1
    27    21    22   ar
    28    22    23   ar
    29    23    24   ar
    30    24    25   ar
    31    25    26   ar
    32    17    18   ar
    33    18    19   ar
    34    19     2    1
    35    12     4    1
    36    19    14   ar
    37    29    27    1
    38    35    30   ar
    39    26    21   ar
    40    10    20    1
@<TRIPOS>MOLECULE
*****
 35 40 0 0 0
SMALL
GASTEIGER

@<TRIPOS>ATOM
      1 O           0.5579    1.6213   23.3608 O.2     1  UNL1       -0.2911
      2 C           1.3922    1.1876   24.5296 C.2     1  UNL1        0.1795
      3 C           1.1682    1.8015   25.8798 C.3     1  UNL1        0.1092
      4 C           2.0025    1.3678   27.0486 C.3     1  UNL1        0.1436
      5 C           2.8367    0.9341   28.2173 C.3     1  UNL1        0.0620
      6 C           2.6128    1.5480   29.5675 C.3     1  UNL1        0.0985
      7 N           1.5546    2.5956   29.7489 N.am    1  UNL1       -0.2640
      8 C           1.3307    3.2095   31.0991 C.2     1  UNL1        0.3039
      9 O           0.2726    4.2570   31.2806 O.2     1  UNL1       -0.2526
     10 N           2.1649    2.7758   32.2679 N.am    1  UNL1       -0.2901
     11 C           0.7204    3.0293   28.5802 C.3     1  UNL1        0.0985
     12 C           0.9443    2.4154   27.2300 C.3     1  UNL1        0.0620
     13 O           3.0606    0.3203   26.8672 O.3     1  UNL1       -0.4819
     14 C           3.2845   -0.2936   25.5169 C.ar    1  UNL1        0.1409
     15 C           4.3427   -1.3412   25.3355 C.ar    1  UNL1        0.0370
     16 C           4.5666   -1.9551   23.9853 C.ar    1  UNL1        0.0031
     17 C           3.7323   -1.5214   22.8165 C.ar    1  UNL1        0.0004
     18 C           2.6742   -0.4738   22.9979 C.ar    1  UNL1        0.0059
     19 C           2.4503    0.1401   24.3482 C.ar    1  UNL1        0.0687
     20 H           2.8594    2.0882   32.1488 H       1  UNL1        0.1509
     21 C           3.9563   -2.1353   21.4663 C.ar    1  UNL1        0.0031
     22 C           3.4306   -1.4555   20.2369 C.ar    1  UNL1        0.0207
     23 C           3.6545   -2.0694   18.8867 C.ar    1  UNL1        0.0989
     24 N           4.4041   -3.3630   18.7659 N.ar    1  UNL1       -0.2423
     25 C           4.9298   -4.0428   19.9955 C.ar    1  UNL1        0.0989
     26 C           4.7059   -3.4289   21.3456 C.ar    1  UNL1        0.0207
     27 C           1.9410    3.3897   33.6181 C.3     1  UNL1        0.0774
     28 C           1.3799    4.4915   34.4672 C.3     1  UNL1        0.0259
     29 C           2.1143    3.3511   35.1076 C.3     1  UNL1        0.0420
     30 C           2.6384    2.6704   36.3372 C.ar    1  UNL1       -0.0208
     31 C           3.6831    1.6010   36.2148 C.ar    1  UNL1       -0.0042
     32 C           4.2072    0.9203   37.4444 C.ar    1  UNL1       -0.0003
     33 C           3.6866    1.3090   38.7964 C.ar    1  UNL1       -0.0000
     34 C           2.6419    2.3784   38.9188 C.ar    1  UNL1       -0.0003
     35 C           2.1178    3.0591   37.6891 C.ar    1  UNL1       -0.0042
@<TRIPOS>BOND
     1     1     2    2
     2     2     3    1
     3     3     4    1
     4     4     5    1
     5     5     6    1
     6     6     7    1
     7     7     8   am
     8     8     9    2
     9     8    10   am
    10    27    10    1
    11    27    28    1
    12    28    29    1
    13    29    30    1
    14    30    31   ar
    15    31    32   ar
    16    32    33   ar
    17    33    34   ar
    18    34    35   ar
    19     7    11    1
    20    11    12    1
    21     4    13    1
    22    13    14    1
    23    14    15   ar
    24    15    16   ar
    25    16    17   ar
    26    17    21    1
    27    21    22   ar
    28    22    23   ar
    29    23    24   ar
    30    24    25   ar
    31    25    26   ar
    32    17    18   ar
    33    18    19   ar
    34    19     2    1
    35    12     4    1
    36    19    14   ar
    37    29    27    1
    38    35    30   ar
    39    26    21   ar
    40    10    20    1
