@<TRIPOS>MOLECULE
*****
 38 42 0 0 0
SMALL
GASTEIGER

@<TRIPOS>ATOM
      1 C         -10.0863  -19.4390   22.6314 C.3     1  UNL1        0.1435
      2 C          -8.9198  -20.1825   23.2114 C.3     1  UNL1        0.1035
      3 C          -7.7379  -20.5139   22.3493 C.2     1  UNL1        0.1173
      4 O          -6.5714  -21.2574   22.9293 O.2     1  UNL1       -0.5097
      5 C          -7.7224  -20.1017   20.9071 C.2     1  UNL1        0.0905
      6 C          -8.8889  -19.3581   20.3271 C.2     1  UNL1        0.3400
      7 O          -8.8735  -18.9458   18.8850 O.2     1  UNL1       -0.2451
      8 O         -10.0709  -19.0267   21.1893 O.3     1  UNL1       -0.4524
      9 H          -6.5810  -21.5150   23.8302 H       1  UNL1        0.2917
     10 C         -11.4188  -18.7562   22.5414 C.3     1  UNL1        0.0372
     11 C         -12.0330  -18.1817   21.2994 C.3     1  UNL1        0.0035
     12 C         -13.3650  -17.5985   21.6680 C.3     1  UNL1        0.0001
     13 C         -13.5740  -17.8126   23.1379 C.3     1  UNL1        0.0001
     14 C         -12.3712  -18.5281   23.6777 C.3     1  UNL1        0.0035
     15 C         -10.5645  -19.6141   24.0423 C.3     1  UNL1        0.0452
     16 C          -9.7150  -19.1446   25.1860 C.3     1  UNL1        0.0300
     17 C          -8.3614  -15.6313   26.4406 C.ar    1  UNL1        0.0583
     18 C          -8.9429  -17.0139   26.4563 C.ar    1  UNL1        0.0105
     19 C          -9.1335  -17.7620   25.1702 C.ar    1  UNL1       -0.0197
     20 C          -8.7425  -17.1276   23.8685 C.ar    1  UNL1        0.0105
     21 C          -8.1610  -15.7450   23.8527 C.ar    1  UNL1        0.0583
     22 N          -7.9705  -14.9968   25.1388 N.ar    1  UNL1       -0.2540
     23 C          -6.8097  -14.3803   28.1070 C.3     1  UNL1        0.0067
     24 C          -8.1708  -14.8831   27.7266 C.3     1  UNL1        0.0458
     25 C          -7.7701  -15.1106   22.5509 C.3     1  UNL1        0.0458
     26 C          -8.7011  -15.1737   21.3764 C.3     1  UNL1        0.0067
     27 C          -6.5405  -20.4330   20.0449 C.3     1  UNL1        0.1032
     28 C          -5.2407  -19.7114   20.2446 C.ar    1  UNL1        0.1669
     29 N          -4.0022  -19.8801   19.4154 N.ar    1  UNL1       -0.1930
     30 C          -2.9473  -18.9674   19.9669 C.ar    1  UNL1        0.2536
     31 N          -1.5284  -18.7089   19.5548 N.ar    1  UNL1       -0.2143
     32 C          -0.6961  -17.7175   20.3127 C.ar    1  UNL1        0.0637
     33 C           0.7229  -17.4590   19.9006 C.3     1  UNL1        0.0522
     34 C          -1.2826  -16.9847   21.4826 C.ar    1  UNL1        0.0296
     35 C          -2.7015  -17.2432   21.8947 C.ar    1  UNL1        0.0651
     36 C          -3.2881  -16.5103   23.0647 C.3     1  UNL1        0.0523
     37 N          -3.5339  -18.2345   21.1368 N.ar    1  UNL1       -0.1994
     38 N          -4.9513  -18.6944   21.3085 N.ar    1  UNL1       -0.1476
@<TRIPOS>BOND
     1    23    24    1
     2    24    17    1
     3    17    18   ar
     4    18    19   ar
     5    19    16    1
     6    16    15    1
     7     1    15    1
     8     1    10    1
     9    10    11    1
    10    11    12    1
    11    12    13    1
    12    13    14    1
    13     1     2    1
    14     2     3    1
    15     3     4    1
    16     3     5    2
    17     5    27    1
    18    27    28    1
    19    28    29   ar
    20    29    30   ar
    21    30    31   ar
    22    31    32   ar
    23    32    33    1
    24    32    34   ar
    25    34    35   ar
    26    35    36    1
    27    35    37   ar
    28    37    38   ar
    29     5     6    1
    30     6     7    2
    31     6     8    1
    32    19    20   ar
    33    20    21   ar
    34    21    25    1
    35    25    26    1
    36    21    22   ar
    37    22    17   ar
    38     8     1    1
    39    14    10    1
    40    38    28   ar
    41    37    30   ar
    42     4     9    1
@<TRIPOS>MOLECULE
*****
 38 42 0 0 0
SMALL
GASTEIGER

@<TRIPOS>ATOM
      1 C         -10.0844  -19.4445   22.6433 C.3     1  UNL1        0.1435
      2 C          -8.9171  -20.1844   23.2263 C.3     1  UNL1        0.1035
      3 C          -7.7342  -20.5165   22.3659 C.2     1  UNL1        0.1173
      4 O          -6.5668  -21.2564   22.9489 O.2     1  UNL1       -0.5097
      5 C          -7.7184  -20.1087   20.9225 C.2     1  UNL1        0.0905
      6 C          -8.8858  -19.3688   20.3395 C.2     1  UNL1        0.3400
      7 O          -8.8701  -18.9610   18.8961 O.2     1  UNL1       -0.2451
      8 O         -10.0688  -19.0367   21.1999 O.3     1  UNL1       -0.4524
      9 H          -6.5766  -21.5112   23.8506 H       1  UNL1        0.2917
     10 C         -11.4180  -18.7642   22.5504 C.3     1  UNL1        0.0372
     11 C         -12.3704  -18.5320   23.6858 C.3     1  UNL1        0.0035
     12 C         -13.5744  -17.8209   23.1429 C.3     1  UNL1        0.0001
     13 C         -13.3661  -17.6136   21.6719 C.3     1  UNL1        0.0001
     14 C         -12.0335  -18.1965   21.3058 C.3     1  UNL1        0.0035
     15 C         -10.5633  -19.6160   24.0544 C.3     1  UNL1        0.0452
     16 C          -9.7154  -19.1413   25.1971 C.3     1  UNL1        0.0300
     17 C          -8.1780  -15.7378   23.8546 C.ar    1  UNL1        0.0583
     18 C          -8.7558  -17.1219   23.8738 C.ar    1  UNL1        0.0105
     19 C          -9.1376  -17.7572   25.1779 C.ar    1  UNL1       -0.0197
     20 C          -8.9416  -17.0084   26.4628 C.ar    1  UNL1        0.0105
     21 C          -8.3638  -15.6243   26.4436 C.ar    1  UNL1        0.0583
     22 N          -7.9820  -14.9890   25.1395 N.ar    1  UNL1       -0.2540
     23 C          -8.6754  -15.2731   21.3474 C.3     1  UNL1        0.0067
     24 C          -7.7961  -15.1024   22.5506 C.3     1  UNL1        0.0458
     25 C          -8.1678  -14.8755   27.7286 C.3     1  UNL1        0.0458
     26 C          -6.8037  -14.3792   28.1068 C.3     1  UNL1        0.0067
     27 C          -6.5355  -20.4408   20.0621 C.3     1  UNL1        0.1032
     28 C          -5.2362  -19.7185   20.2622 C.ar    1  UNL1        0.1669
     29 N          -3.9977  -19.8856   19.4325 N.ar    1  UNL1       -0.1930
     30 C          -2.9433  -18.9727   19.9847 C.ar    1  UNL1        0.2536
     31 N          -1.5247  -18.7128   19.5726 N.ar    1  UNL1       -0.2143
     32 C          -0.6929  -17.7216   20.3314 C.ar    1  UNL1        0.0637
     33 C           0.7259  -17.4617   19.9193 C.3     1  UNL1        0.0522
     34 C          -1.2797  -16.9904   21.5022 C.ar    1  UNL1        0.0296
     35 C          -2.6983  -17.2503   21.9144 C.ar    1  UNL1        0.0651
     36 C          -3.2851  -16.5191   23.0853 C.3     1  UNL1        0.0523
     37 N          -3.5302  -18.2414   21.1556 N.ar    1  UNL1       -0.1994
     38 N          -4.9472  -18.7024   21.3271 N.ar    1  UNL1       -0.1476
@<TRIPOS>BOND
     1    23    24    1
     2    24    17    1
     3    17    18   ar
     4    18    19   ar
     5    19    16    1
     6    16    15    1
     7     1    15    1
     8     1    10    1
     9    10    11    1
    10    11    12    1
    11    12    13    1
    12    13    14    1
    13     1     2    1
    14     2     3    1
    15     3     4    1
    16     3     5    2
    17     5    27    1
    18    27    28    1
    19    28    29   ar
    20    29    30   ar
    21    30    31   ar
    22    31    32   ar
    23    32    33    1
    24    32    34   ar
    25    34    35   ar
    26    35    36    1
    27    35    37   ar
    28    37    38   ar
    29     5     6    1
    30     6     7    2
    31     6     8    1
    32    19    20   ar
    33    20    21   ar
    34    21    25    1
    35    25    26    1
    36    21    22   ar
    37    22    17   ar
    38     8     1    1
    39    14    10    1
    40    38    28   ar
    41    37    30   ar
    42     4     9    1
@<TRIPOS>MOLECULE
*****
 38 42 0 0 0
SMALL
GASTEIGER

@<TRIPOS>ATOM
      1 C           4.5924   -0.5262   18.8020 C.3     1  UNL1        0.1435
      2 C           3.1175   -0.5669   18.5318 C.3     1  UNL1        0.1035
      3 C           2.3467    0.7112   18.3829 C.2     1  UNL1        0.1173
      4 O           0.8718    0.6705   18.1127 O.2     1  UNL1       -0.5097
      5 C           3.0508    2.0302   18.5042 C.2     1  UNL1        0.0905
      6 C           4.5256    2.0709   18.7744 C.2     1  UNL1        0.3400
      7 O           5.2298    3.3898   18.8957 O.2     1  UNL1       -0.2451
      8 O           5.2965    0.7927   18.9233 O.3     1  UNL1       -0.4524
      9 H           0.4319   -0.1534   18.0369 H       1  UNL1        0.2917
     10 C           5.9915   -1.0007   19.0614 C.3     1  UNL1        0.0372
     11 C           6.7527   -1.9948   18.2353 C.3     1  UNL1        0.0035
     12 C           8.1067   -2.1730   18.8557 C.3     1  UNL1        0.0001
     13 C           8.1824   -1.2890   20.0652 C.3     1  UNL1        0.0001
     14 C           6.8751   -0.5645   20.1923 C.3     1  UNL1        0.0035
     15 C           4.3742   -2.0099   18.7708 C.3     1  UNL1        0.0452
     16 C           3.5964   -2.6768   19.8663 C.3     1  UNL1        0.0300
     17 C           5.6288   -3.4130   23.1945 C.ar    1  UNL1        0.0583
     18 C           5.1533   -3.5036   21.7748 C.ar    1  UNL1        0.0105
     19 C           4.0719   -2.5862   21.2860 C.ar    1  UNL1       -0.0197
     20 C           3.4659   -1.5782   22.2170 C.ar    1  UNL1        0.0105
     21 C           3.9414   -1.4876   23.6368 C.ar    1  UNL1        0.0583
     22 N           5.0229   -2.4050   24.1255 N.ar    1  UNL1       -0.2540
     23 C           6.8308   -4.6345   25.1472 C.3     1  UNL1        0.0067
     24 C           6.7103   -4.3304   23.6833 C.3     1  UNL1        0.0458
     25 C           3.3354   -0.4796   24.5677 C.3     1  UNL1        0.0458
     26 C           2.1371    0.3135   24.1373 C.3     1  UNL1        0.0067
     27 C           2.2800    3.3084   18.3553 C.3     1  UNL1        0.1032
     28 C           0.8381    3.3668   18.7648 C.ar    1  UNL1        0.1669
     29 N           0.2885    3.0007   20.1116 N.ar    1  UNL1       -0.1930
     30 C          -1.1965    3.2092   20.0784 C.ar    1  UNL1        0.2536
     31 N          -2.2611    3.0123   21.1166 N.ar    1  UNL1       -0.2143
     32 C          -3.6939    3.3104   20.7875 C.ar    1  UNL1        0.0637
     33 C          -4.7586    3.1135   21.8257 C.3     1  UNL1        0.0522
     34 C          -4.0621    3.8053   19.4202 C.ar    1  UNL1        0.0296
     35 C          -2.9975    4.0022   18.3820 C.ar    1  UNL1        0.0651
     36 C          -3.3657    4.4971   17.0147 C.3     1  UNL1        0.0523
     37 N          -1.5647    3.7041   18.7111 N.ar    1  UNL1       -0.1994
     38 N          -0.3072    3.8015   17.8992 N.ar    1  UNL1       -0.1476
@<TRIPOS>BOND
     1    23    24    1
     2    24    17    1
     3    17    18   ar
     4    18    19   ar
     5    19    16    1
     6    16    15    1
     7     1    15    1
     8     1    10    1
     9    10    11    1
    10    11    12    1
    11    12    13    1
    12    13    14    1
    13     1     2    1
    14     2     3    1
    15     3     4    1
    16     3     5    2
    17     5    27    1
    18    27    28    1
    19    28    29   ar
    20    29    30   ar
    21    30    31   ar
    22    31    32   ar
    23    32    33    1
    24    32    34   ar
    25    34    35   ar
    26    35    36    1
    27    35    37   ar
    28    37    38   ar
    29     5     6    1
    30     6     7    2
    31     6     8    1
    32    19    20   ar
    33    20    21   ar
    34    21    25    1
    35    25    26    1
    36    21    22   ar
    37    22    17   ar
    38     8     1    1
    39    14    10    1
    40    38    28   ar
    41    37    30   ar
    42     4     9    1
@<TRIPOS>MOLECULE
*****
 38 42 0 0 0
SMALL
GASTEIGER

@<TRIPOS>ATOM
      1 C         -10.6121  -18.3477   22.7223 C.3     1  UNL1        0.1435
      2 C          -9.5561  -17.9417   21.7373 C.3     1  UNL1        0.1035
      3 C          -8.2939  -18.7431   21.6179 C.2     1  UNL1        0.1173
      4 O          -7.2379  -18.3371   20.6329 O.2     1  UNL1       -0.5097
      5 C          -8.0875  -19.9508   22.4833 C.2     1  UNL1        0.0905
      6 C          -9.1434  -20.3569   23.4683 C.2     1  UNL1        0.3400
      7 O          -8.9371  -21.5645   24.3338 O.2     1  UNL1       -0.2451
      8 O         -10.4058  -19.5554   23.5878 O.3     1  UNL1       -0.4524
      9 H          -7.3668  -17.5827   20.0923 H       1  UNL1        0.2917
     10 C         -11.8943  -18.3326   23.5005 C.3     1  UNL1        0.0372
     11 C         -12.0695  -18.7850   24.9199 C.3     1  UNL1        0.0035
     12 C         -13.5100  -18.5944   25.2926 C.3     1  UNL1        0.0001
     13 C         -14.2250  -18.0243   24.1035 C.3     1  UNL1        0.0001
     14 C         -13.2264  -17.8625   22.9960 C.3     1  UNL1        0.0035
     15 C         -11.2637  -17.1349   22.1270 C.3     1  UNL1        0.0452
     16 C         -10.7068  -15.7706   22.4072 C.3     1  UNL1        0.0300
     17 C          -6.9273  -15.2144   23.4820 C.ar    1  UNL1        0.0583
     18 C          -8.1501  -15.3642   22.6264 C.ar    1  UNL1        0.0105
     19 C          -9.4840  -15.6208   23.2628 C.ar    1  UNL1       -0.0197
     20 C          -9.5949  -15.7276   24.7549 C.ar    1  UNL1        0.0105
     21 C          -8.3720  -15.5778   25.6106 C.ar    1  UNL1        0.0583
     22 N          -7.0382  -15.3212   24.9741 N.ar    1  UNL1       -0.2540
     23 C          -4.3623  -15.6178   23.3923 C.3     1  UNL1        0.0067
     24 C          -5.5934  -14.9578   22.8456 C.3     1  UNL1        0.0458
     25 C          -8.4831  -15.6846   27.1027 C.3     1  UNL1        0.0458
     26 C          -7.2654  -15.9842   27.9258 C.3     1  UNL1        0.0067
     27 C          -6.8253  -20.7523   22.3639 C.3     1  UNL1        0.1032
     28 C          -5.5870  -20.1218   21.7989 C.ar    1  UNL1        0.1669
     29 N          -5.2056  -20.0726   20.3490 N.ar    1  UNL1       -0.1930
     30 C          -3.8957  -19.3502   20.2386 C.ar    1  UNL1        0.2536
     31 N          -3.0375  -19.0028   19.0585 N.ar    1  UNL1       -0.2143
     32 C          -1.7510  -18.2581   19.2600 C.ar    1  UNL1        0.0637
     33 C          -0.8927  -17.9107   18.0798 C.3     1  UNL1        0.0522
     34 C          -1.3229  -17.8608   20.6416 C.ar    1  UNL1        0.0296
     35 C          -2.1812  -18.2082   21.8217 C.ar    1  UNL1        0.0651
     36 C          -1.7530  -17.8109   23.2033 C.3     1  UNL1        0.0523
     37 N          -3.4676  -18.9529   21.6202 N.ar    1  UNL1       -0.1994
     38 N          -4.5129  -19.4298   22.5846 N.ar    1  UNL1       -0.1476
@<TRIPOS>BOND
     1    23    24    1
     2    24    17    1
     3    17    18   ar
     4    18    19   ar
     5    19    16    1
     6    16    15    1
     7     1    15    1
     8     1    10    1
     9    10    11    1
    10    11    12    1
    11    12    13    1
    12    13    14    1
    13     1     2    1
    14     2     3    1
    15     3     4    1
    16     3     5    2
    17     5    27    1
    18    27    28    1
    19    28    29   ar
    20    29    30   ar
    21    30    31   ar
    22    31    32   ar
    23    32    33    1
    24    32    34   ar
    25    34    35   ar
    26    35    36    1
    27    35    37   ar
    28    37    38   ar
    29     5     6    1
    30     6     7    2
    31     6     8    1
    32    19    20   ar
    33    20    21   ar
    34    21    25    1
    35    25    26    1
    36    21    22   ar
    37    22    17   ar
    38     8     1    1
    39    14    10    1
    40    38    28   ar
    41    37    30   ar
    42     4     9    1
@<TRIPOS>MOLECULE
*****
 38 42 0 0 0
SMALL
GASTEIGER

@<TRIPOS>ATOM
      1 C           3.3482   -1.1074   20.8471 C.3     1  UNL1        0.1435
      2 C           2.8479   -0.5237   22.1352 C.3     1  UNL1        0.1035
      3 C           2.2277    0.8420   22.1489 C.2     1  UNL1        0.1173
      4 O           1.7274    1.4256   23.4369 O.2     1  UNL1       -0.5097
      5 C           2.1079    1.6241   20.8746 C.2     1  UNL1        0.0905
      6 C           2.6082    1.0405   19.5865 C.2     1  UNL1        0.3400
      7 O           2.4884    1.8226   18.3122 O.2     1  UNL1       -0.2451
      8 O           3.2284   -0.3253   19.5728 O.3     1  UNL1       -0.4524
      9 H           1.8022    0.9370   24.2330 H       1  UNL1        0.2917
     10 C           3.9645   -2.0799   19.8857 C.3     1  UNL1        0.0372
     11 C           3.6339   -3.5388   19.7740 C.3     1  UNL1        0.0035
     12 C           4.4846   -4.1249   18.6865 C.3     1  UNL1        0.0001
     13 C           5.3410   -3.0282   18.1260 C.3     1  UNL1        0.0001
     14 C           5.0195   -1.7644   18.8672 C.3     1  UNL1        0.0035
     15 C           3.6821   -2.2272   21.7875 C.3     1  UNL1        0.0452
     16 C           4.7887   -2.0630   22.7867 C.3     1  UNL1        0.0300
     17 C           7.4632   -4.8637   23.6542 C.ar    1  UNL1        0.0583
     18 C           6.2433   -3.9948   23.7365 C.ar    1  UNL1        0.0105
     19 C           6.0086   -2.9319   22.7044 C.ar    1  UNL1       -0.0197
     20 C           6.9938   -2.7380   21.5900 C.ar    1  UNL1        0.0105
     21 C           8.2137   -3.6070   21.5078 C.ar    1  UNL1        0.0583
     22 N           8.4484   -4.6698   22.5399 N.ar    1  UNL1       -0.2540
     23 C           8.1770   -7.2852   24.2681 C.3     1  UNL1        0.0067
     24 C           7.6979   -5.9266   24.6863 C.3     1  UNL1        0.0458
     25 C           9.1989   -3.4130   20.3933 C.3     1  UNL1        0.0458
     26 C           8.8579   -2.5191   19.2381 C.3     1  UNL1        0.0067
     27 C           1.4877    2.9899   20.8882 C.3     1  UNL1        0.1032
     28 C          -0.0043    3.1356   20.9384 C.ar    1  UNL1        0.1669
     29 N          -0.9253    3.1890   19.7556 N.ar    1  UNL1       -0.1930
     30 C          -2.3275    3.3399   20.2664 C.ar    1  UNL1        0.2536
     31 N          -3.6468    3.4462   19.5607 N.ar    1  UNL1       -0.2143
     32 C          -4.9118    3.5923   20.3535 C.ar    1  UNL1        0.0637
     33 C          -6.2312    3.6986   19.6476 C.3     1  UNL1        0.0522
     34 C          -4.8575    3.6322   21.8519 C.ar    1  UNL1        0.0296
     35 C          -3.5382    3.5259   22.5576 C.ar    1  UNL1        0.0651
     36 C          -3.4839    3.5657   24.0561 C.3     1  UNL1        0.0523
     37 N          -2.2732    3.3798   21.7649 N.ar    1  UNL1       -0.1994
     38 N          -0.8374    3.2535   22.1803 N.ar    1  UNL1       -0.1476
@<TRIPOS>BOND
     1    23    24    1
     2    24    17    1
     3    17    18   ar
     4    18    19   ar
     5    19    16    1
     6    16    15    1
     7     1    15    1
     8     1    10    1
     9    10    11    1
    10    11    12    1
    11    12    13    1
    12    13    14    1
    13     1     2    1
    14     2     3    1
    15     3     4    1
    16     3     5    2
    17     5    27    1
    18    27    28    1
    19    28    29   ar
    20    29    30   ar
    21    30    31   ar
    22    31    32   ar
    23    32    33    1
    24    32    34   ar
    25    34    35   ar
    26    35    36    1
    27    35    37   ar
    28    37    38   ar
    29     5     6    1
    30     6     7    2
    31     6     8    1
    32    19    20   ar
    33    20    21   ar
    34    21    25    1
    35    25    26    1
    36    21    22   ar
    37    22    17   ar
    38     8     1    1
    39    14    10    1
    40    38    28   ar
    41    37    30   ar
    42     4     9    1
@<TRIPOS>MOLECULE
*****
 38 42 0 0 0
SMALL
GASTEIGER

@<TRIPOS>ATOM
      1 C         -10.5903  -18.3510   22.6953 C.3     1  UNL1        0.1435
      2 C          -9.5379  -17.9505   21.7043 C.3     1  UNL1        0.1035
      3 C          -8.2765  -18.7533   21.5842 C.2     1  UNL1        0.1173
      4 O          -7.2241  -18.3529   20.5932 O.2     1  UNL1       -0.5097
      5 C          -8.0674  -19.9566   22.4551 C.2     1  UNL1        0.0905
      6 C          -9.1198  -20.3570   23.4462 C.2     1  UNL1        0.3400
      7 O          -8.9109  -21.5602   24.3171 O.2     1  UNL1       -0.2451
      8 O         -10.3813  -19.5542   23.5663 O.3     1  UNL1       -0.4524
      9 H          -7.3546  -17.6012   20.0491 H       1  UNL1        0.2917
     10 C         -11.8695  -18.3311   23.4783 C.3     1  UNL1        0.0372
     11 C         -13.1994  -17.8457   22.9823 C.3     1  UNL1        0.0035
     12 C         -14.1953  -18.0078   24.0922 C.3     1  UNL1        0.0001
     13 C         -13.4810  -18.5934   25.2741 C.3     1  UNL1        0.0001
     14 C         -12.0436  -18.7932   24.8947 C.3     1  UNL1        0.0035
     15 C         -11.2435  -17.1409   22.0963 C.3     1  UNL1        0.0452
     16 C         -10.6855  -15.7753   22.3680 C.3     1  UNL1        0.0300
     17 C          -8.3713  -15.5737   25.5857 C.ar    1  UNL1        0.0583
     18 C          -9.5882  -15.7285   24.7225 C.ar    1  UNL1        0.0105
     19 C          -9.4685  -15.6205   23.2312 C.ar    1  UNL1       -0.0197
     20 C          -8.1319  -15.3577   22.6031 C.ar    1  UNL1        0.0105
     21 C          -6.9150  -15.2030   23.4663 C.ar    1  UNL1        0.0583
     22 N          -7.0347  -15.3109   24.9576 N.ar    1  UNL1       -0.2540
     23 C          -7.2685  -15.9251   27.9117 C.3     1  UNL1        0.0067
     24 C          -8.4908  -15.6817   27.0771 C.3     1  UNL1        0.0458
     25 C          -5.5784  -14.9402   22.8381 C.3     1  UNL1        0.0458
     26 C          -4.3572  -15.6438   23.3513 C.3     1  UNL1        0.0067
     27 C          -6.8061  -20.7594   22.3351 C.3     1  UNL1        0.1032
     28 C          -5.5641  -20.1265   21.7810 C.ar    1  UNL1        0.1669
     29 N          -5.1706  -20.0756   20.3344 N.ar    1  UNL1       -0.1930
     30 C          -3.8609  -19.3511   20.2356 C.ar    1  UNL1        0.2536
     31 N          -2.9933  -19.0014   19.0630 N.ar    1  UNL1       -0.2143
     32 C          -1.7098  -18.2549   19.2759 C.ar    1  UNL1        0.0637
     33 C          -0.8421  -17.9052   18.1033 C.3     1  UNL1        0.0522
     34 C          -1.2939  -17.8581   20.6613 C.ar    1  UNL1        0.0296
     35 C          -2.1615  -18.2077   21.8339 C.ar    1  UNL1        0.0651
     36 C          -1.7455  -17.8109   23.2194 C.3     1  UNL1        0.0523
     37 N          -3.4450  -18.9542   21.6211 N.ar    1  UNL1       -0.1994
     38 N          -4.4976  -19.4335   22.5762 N.ar    1  UNL1       -0.1476
@<TRIPOS>BOND
     1    23    24    1
     2    24    17    1
     3    17    18   ar
     4    18    19   ar
     5    19    16    1
     6    16    15    1
     7     1    15    1
     8     1    10    1
     9    10    11    1
    10    11    12    1
    11    12    13    1
    12    13    14    1
    13     1     2    1
    14     2     3    1
    15     3     4    1
    16     3     5    2
    17     5    27    1
    18    27    28    1
    19    28    29   ar
    20    29    30   ar
    21    30    31   ar
    22    31    32   ar
    23    32    33    1
    24    32    34   ar
    25    34    35   ar
    26    35    36    1
    27    35    37   ar
    28    37    38   ar
    29     5     6    1
    30     6     7    2
    31     6     8    1
    32    19    20   ar
    33    20    21   ar
    34    21    25    1
    35    25    26    1
    36    21    22   ar
    37    22    17   ar
    38     8     1    1
    39    14    10    1
    40    38    28   ar
    41    37    30   ar
    42     4     9    1
@<TRIPOS>MOLECULE
*****
 38 42 0 0 0
SMALL
GASTEIGER

@<TRIPOS>ATOM
      1 C           4.1634   -0.8956   19.8144 C.3     1  UNL1        0.1435
      2 C           3.7426   -2.3244   19.9910 C.3     1  UNL1        0.1035
      3 C           4.7385   -3.3485   20.4486 C.2     1  UNL1        0.1173
      4 O           4.3177   -4.7774   20.6253 O.2     1  UNL1       -0.5097
      5 C           6.1553   -2.9437   20.7296 C.2     1  UNL1        0.0905
      6 C           6.5760   -1.5148   20.5529 C.2     1  UNL1        0.3400
      7 O           7.9928   -1.1099   20.8339 O.2     1  UNL1       -0.2451
      8 O           5.5801   -0.4907   20.0953 O.3     1  UNL1       -0.4524
      9 H           3.4327   -5.0303   20.4497 H       1  UNL1        0.2917
     10 C           4.0824    0.5694   19.5025 C.3     1  UNL1        0.0372
     11 C           4.3927    1.6908   20.4492 C.3     1  UNL1        0.0035
     12 C           4.1789    2.9847   19.7210 C.3     1  UNL1        0.0001
     13 C           3.7365    2.6630   18.3243 C.3     1  UNL1        0.0001
     14 C           3.6768    1.1702   18.1893 C.3     1  UNL1        0.0035
     15 C           2.7185   -0.7916   19.4251 C.3     1  UNL1        0.0452
     16 C           1.6534   -0.8194   20.4809 C.3     1  UNL1        0.0300
     17 C          -0.3330    2.6042   20.1930 C.ar    1  UNL1        0.0583
     18 C           0.3735    1.3387   19.8067 C.ar    1  UNL1        0.0105
     19 C           0.9469    0.4462   20.8672 C.ar    1  UNL1       -0.0197
     20 C           0.8139    0.8193   22.3139 C.ar    1  UNL1        0.0105
     21 C           0.1075    2.0848   22.7002 C.ar    1  UNL1        0.0583
     22 N          -0.4659    2.9773   21.6397 N.ar    1  UNL1       -0.2540
     23 C          -0.3332    3.4787   17.7465 C.3     1  UNL1        0.0067
     24 C          -0.9064    3.4968   19.1326 C.3     1  UNL1        0.0458
     25 C          -0.0254    2.4579   24.1471 C.3     1  UNL1        0.0458
     26 C           0.1080    1.4060   25.2080 C.3     1  UNL1        0.0067
     27 C           7.1512   -3.9677   21.1872 C.3     1  UNL1        0.1032
     28 C           7.1851   -4.3904   22.6260 C.ar    1  UNL1        0.1669
     29 N           6.6048   -3.6308   23.7820 N.ar    1  UNL1       -0.1930
     30 C           6.8664   -4.4178   25.0319 C.ar    1  UNL1        0.2536
     31 N           6.5247   -4.1609   26.4696 N.ar    1  UNL1       -0.2143
     32 C           6.9252   -5.1499   27.5240 C.ar    1  UNL1        0.0637
     33 C           6.5835   -4.8930   28.9618 C.3     1  UNL1        0.0522
     34 C           7.6671   -6.3958   27.1405 C.ar    1  UNL1        0.0296
     35 C           8.0088   -6.6528   25.7027 C.ar    1  UNL1        0.0651
     36 C           8.7508   -7.8987   25.3192 C.3     1  UNL1        0.0523
     37 N           7.6084   -5.6638   24.6484 N.ar    1  UNL1       -0.1994
     38 N           7.8054   -5.6468   23.1615 N.ar    1  UNL1       -0.1476
@<TRIPOS>BOND
     1    23    24    1
     2    24    17    1
     3    17    18   ar
     4    18    19   ar
     5    19    16    1
     6    16    15    1
     7     1    15    1
     8     1    10    1
     9    10    11    1
    10    11    12    1
    11    12    13    1
    12    13    14    1
    13     1     2    1
    14     2     3    1
    15     3     4    1
    16     3     5    2
    17     5    27    1
    18    27    28    1
    19    28    29   ar
    20    29    30   ar
    21    30    31   ar
    22    31    32   ar
    23    32    33    1
    24    32    34   ar
    25    34    35   ar
    26    35    36    1
    27    35    37   ar
    28    37    38   ar
    29     5     6    1
    30     6     7    2
    31     6     8    1
    32    19    20   ar
    33    20    21   ar
    34    21    25    1
    35    25    26    1
    36    21    22   ar
    37    22    17   ar
    38     8     1    1
    39    14    10    1
    40    38    28   ar
    41    37    30   ar
    42     4     9    1
@<TRIPOS>MOLECULE
*****
 38 42 0 0 0
SMALL
GASTEIGER

@<TRIPOS>ATOM
      1 C           5.1369   -1.0683   19.4784 C.3     1  UNL1        0.1435
      2 C           4.7917   -2.5280   19.4605 C.3     1  UNL1        0.1035
      3 C           5.8038   -3.5435   19.9014 C.2     1  UNL1        0.1173
      4 O           5.4587   -5.0031   19.8835 O.2     1  UNL1       -0.5097
      5 C           7.1612   -3.0994   20.3601 C.2     1  UNL1        0.0905
      6 C           7.5063   -1.6397   20.3780 C.2     1  UNL1        0.3400
      7 O           8.8636   -1.1955   20.8368 O.2     1  UNL1       -0.2451
      8 O           6.4942   -0.6242   19.9371 O.3     1  UNL1       -0.4524
      9 H           4.6108   -5.2806   19.5969 H       1  UNL1        0.2917
     10 C           4.9934    0.4161   19.3175 C.3     1  UNL1        0.0372
     11 C           5.2517    1.4467   20.3764 C.3     1  UNL1        0.0035
     12 C           4.9843    2.7981   19.7829 C.3     1  UNL1        0.0001
     13 C           4.5607    2.6027   18.3572 C.3     1  UNL1        0.0001
     14 C           4.5663    1.1305   18.0696 C.3     1  UNL1        0.0035
     15 C           3.7298   -0.9969   18.9637 C.3     1  UNL1        0.0452
     16 C           2.5883   -1.4205   19.8399 C.3     1  UNL1        0.0300
     17 C           2.4935   -0.0010   23.5447 C.ar    1  UNL1        0.0583
     18 C           2.8730   -0.8306   22.3540 C.ar    1  UNL1        0.0105
     19 C           2.2088   -0.5910   21.0306 C.ar    1  UNL1       -0.0197
     20 C           1.1651    0.4782   20.8979 C.ar    1  UNL1        0.0105
     21 C           0.7855    1.3077   22.0887 C.ar    1  UNL1        0.0583
     22 N           1.4498    1.0681   23.4121 N.ar    1  UNL1       -0.2540
     23 C           4.0552   -1.4282   25.0528 C.3     1  UNL1        0.0067
     24 C           3.1577   -0.2406   24.8682 C.3     1  UNL1        0.0458
     25 C          -0.2582    2.3769   21.9559 C.3     1  UNL1        0.0458
     26 C          -0.8575    2.6774   20.6140 C.3     1  UNL1        0.0067
     27 C           8.1733   -4.1148   20.8010 C.3     1  UNL1        0.1032
     28 C           8.0424   -4.7702   22.1439 C.ar    1  UNL1        0.1669
     29 N           8.4073   -6.1875   22.4726 N.ar    1  UNL1       -0.1930
     30 C           8.1139   -6.4165   23.9257 C.ar    1  UNL1        0.2536
     31 N           8.2736   -7.6219   24.8040 N.ar    1  UNL1       -0.2143
     32 C           7.8870   -7.5516   26.2517 C.ar    1  UNL1        0.0637
     33 C           8.0468   -8.7571   27.1301 C.3     1  UNL1        0.0522
     34 C           7.3408   -6.2759   26.8210 C.ar    1  UNL1        0.0296
     35 C           7.1811   -5.0705   25.9427 C.ar    1  UNL1        0.0651
     36 C           6.6349   -3.7947   26.5120 C.3     1  UNL1        0.0523
     37 N           7.5677   -5.1408   24.4951 N.ar    1  UNL1       -0.1994
     38 N           7.5234   -4.1233   23.3938 N.ar    1  UNL1       -0.1476
@<TRIPOS>BOND
     1    23    24    1
     2    24    17    1
     3    17    18   ar
     4    18    19   ar
     5    19    16    1
     6    16    15    1
     7     1    15    1
     8     1    10    1
     9    10    11    1
    10    11    12    1
    11    12    13    1
    12    13    14    1
    13     1     2    1
    14     2     3    1
    15     3     4    1
    16     3     5    2
    17     5    27    1
    18    27    28    1
    19    28    29   ar
    20    29    30   ar
    21    30    31   ar
    22    31    32   ar
    23    32    33    1
    24    32    34   ar
    25    34    35   ar
    26    35    36    1
    27    35    37   ar
    28    37    38   ar
    29     5     6    1
    30     6     7    2
    31     6     8    1
    32    19    20   ar
    33    20    21   ar
    34    21    25    1
    35    25    26    1
    36    21    22   ar
    37    22    17   ar
    38     8     1    1
    39    14    10    1
    40    38    28   ar
    41    37    30   ar
    42     4     9    1
@<TRIPOS>MOLECULE
*****
 38 42 0 0 0
SMALL
GASTEIGER

@<TRIPOS>ATOM
      1 C           7.4196   -4.8518   25.7076 C.3     1  UNL1        0.1435
      2 C           6.6858   -3.8108   26.4999 C.3     1  UNL1        0.1035
      3 C           6.4829   -3.9954   27.9745 C.2     1  UNL1        0.1173
      4 O           5.7491   -2.9544   28.7668 O.2     1  UNL1       -0.5097
      5 C           7.0139   -5.2212   28.6570 C.2     1  UNL1        0.0905
      6 C           7.7477   -6.2622   27.8647 C.2     1  UNL1        0.3400
      7 O           8.2787   -7.4879   28.5471 O.2     1  UNL1       -0.2451
      8 O           7.9506   -6.0776   26.3900 O.3     1  UNL1       -0.4524
      9 H           5.4174   -2.1887   28.3406 H       1  UNL1        0.2917
     10 C           8.0444   -5.5516   24.5371 C.3     1  UNL1        0.0372
     11 C           8.0844   -7.0345   24.3151 C.3     1  UNL1        0.0035
     12 C           8.8036   -7.2907   23.0240 C.3     1  UNL1        0.0001
     13 C           9.2082   -5.9661   22.4480 C.3     1  UNL1        0.0001
     14 C           8.7390   -4.8913   23.3832 C.3     1  UNL1        0.0035
     15 C           7.1057   -3.8691   24.6187 C.3     1  UNL1        0.0452
     16 C           5.7471   -3.2373   24.5474 C.3     1  UNL1        0.0300
     17 C           3.4871   -1.5209   21.7732 C.ar    1  UNL1        0.0583
     18 C           4.0956   -1.8428   23.1059 C.ar    1  UNL1        0.0105
     19 C           5.1386   -2.9153   23.2147 C.ar    1  UNL1       -0.0197
     20 C           5.5731   -3.6659   21.9908 C.ar    1  UNL1        0.0105
     21 C           4.9646   -3.3440   20.6581 C.ar    1  UNL1        0.0583
     22 N           3.9216   -2.2715   20.5493 N.ar    1  UNL1       -0.2540
     23 C           1.4043   -0.5203   20.5856 C.3     1  UNL1        0.0067
     24 C           2.4441   -0.4484   21.6643 C.3     1  UNL1        0.0458
     25 C           5.3991   -4.0947   19.4343 C.3     1  UNL1        0.0458
     26 C           4.4971   -5.1292   18.8294 C.3     1  UNL1        0.0067
     27 C           6.8110   -5.4059   30.1317 C.3     1  UNL1        0.1032
     28 C           7.0521   -4.2615   31.0711 C.ar    1  UNL1        0.1669
     29 N           8.3887   -3.7919   31.5639 N.ar    1  UNL1       -0.1930
     30 C           8.1614   -2.6260   32.4799 C.ar    1  UNL1        0.2536
     31 N           9.1087   -1.7605   33.2568 N.ar    1  UNL1       -0.2143
     32 C           8.5788   -0.6440   34.1070 C.ar    1  UNL1        0.0637
     33 C           9.5261    0.2216   34.8839 C.3     1  UNL1        0.0522
     34 C           7.1018   -0.3931   34.1802 C.ar    1  UNL1        0.0296
     35 C           6.1546   -1.2587   33.4034 C.ar    1  UNL1        0.0651
     36 C           4.6775   -1.0077   33.4767 C.3     1  UNL1        0.0523
     37 N           6.6844   -2.3751   32.5532 N.ar    1  UNL1       -0.1994
     38 N           5.9987   -3.3859   31.6825 N.ar    1  UNL1       -0.1476
@<TRIPOS>BOND
     1    23    24    1
     2    24    17    1
     3    17    18   ar
     4    18    19   ar
     5    19    16    1
     6    16    15    1
     7     1    15    1
     8     1    10    1
     9    10    11    1
    10    11    12    1
    11    12    13    1
    12    13    14    1
    13     1     2    1
    14     2     3    1
    15     3     4    1
    16     3     5    2
    17     5    27    1
    18    27    28    1
    19    28    29   ar
    20    29    30   ar
    21    30    31   ar
    22    31    32   ar
    23    32    33    1
    24    32    34   ar
    25    34    35   ar
    26    35    36    1
    27    35    37   ar
    28    37    38   ar
    29     5     6    1
    30     6     7    2
    31     6     8    1
    32    19    20   ar
    33    20    21   ar
    34    21    25    1
    35    25    26    1
    36    21    22   ar
    37    22    17   ar
    38     8     1    1
    39    14    10    1
    40    38    28   ar
    41    37    30   ar
    42     4     9    1
