@<TRIPOS>MOLECULE
*****
 24 27 0 0 0
SMALL
GASTEIGER

@<TRIPOS>ATOM
      1 C         -10.8141  -18.4307   22.5095 C.3     1  UNL1        0.0385
      2 C         -11.9203  -18.1320   23.4775 C.3     1  UNL1        0.0228
      3 C         -13.1137  -17.6763   22.6913 C.3     1  UNL1        0.0689
      4 N         -12.7451  -17.6934   21.2375 N.3     1  UNL1       -0.2972
      5 C         -11.3238  -18.1597   21.1251 C.3     1  UNL1        0.0729
      6 H         -12.8335  -16.7553   20.8469 H       1  UNL1        0.1233
      7 C          -4.7080  -19.6915   21.1374 C.2     1  UNL1        0.1488
      8 C          -5.5525  -19.2652   22.3015 C.2     1  UNL1        0.0308
      9 C          -6.9749  -19.1751   21.8338 C.2     1  UNL1        0.0158
     10 C          -8.2431  -18.8034   22.5434 C.2     1  UNL1       -0.0033
     11 C          -9.5458  -18.8024   21.7999 C.2     1  UNL1       -0.0250
     12 C          -9.5804  -19.1731   20.3469 C.2     1  UNL1       -0.0240
     13 C          -8.3122  -19.5448   19.6373 C.3     1  UNL1        0.0714
     14 C          -7.0095  -19.5458   20.3808 C.2     1  UNL1        0.0641
     15 N          -5.6085  -19.8650   19.9504 N.2     1  UNL1       -0.2390
     16 N          -1.7393  -20.1219   21.1766 N.1     1  UNL1       -0.1893
     17 C          -3.2236  -19.9067   21.1570 C.1     1  UNL1        0.1197
     18 C         -10.0392  -18.7795   23.7456 C.3     1  UNL1        0.0317
     19 C          -9.5276  -17.6911   24.6420 C.ar    1  UNL1       -0.0218
     20 C          -9.2946  -16.3147   24.0930 C.ar    1  UNL1       -0.0043
     21 C          -8.7830  -15.2263   24.9894 C.ar    1  UNL1       -0.0003
     22 C          -8.5043  -15.5142   26.4349 C.ar    1  UNL1       -0.0000
     23 C          -8.7373  -16.8905   26.9840 C.ar    1  UNL1       -0.0003
     24 C          -9.2489  -17.9790   26.0875 C.ar    1  UNL1       -0.0043
@<TRIPOS>BOND
     1    16    17    3
     2    17     7    1
     3     7     8    2
     4     8     9    1
     5     9    10    2
     6    10    11    1
     7    11     1    1
     8     1    18    1
     9    18    19    1
    10    19    20   ar
    11    20    21   ar
    12    21    22   ar
    13    22    23   ar
    14    23    24   ar
    15     1     2    1
    16     2     3    1
    17     3     4    1
    18     4     5    1
    19    11    12    2
    20    12    13    1
    21    13    14    1
    22    14    15    2
    23    15     7    1
    24    14     9    1
    25     5     1    1
    26    24    19   ar
    27     4     6    1
@<TRIPOS>MOLECULE
*****
 24 27 0 0 0
SMALL
GASTEIGER

@<TRIPOS>ATOM
      1 C          -8.7868  -19.1668   23.2120 C.3     1  UNL1        0.0385
      2 C          -9.9450  -18.7121   24.0497 C.3     1  UNL1        0.0228
      3 C         -10.3800  -19.8655   24.9043 C.3     1  UNL1        0.0689
      4 N          -9.4906  -21.0331   24.5949 N.3     1  UNL1       -0.2972
      5 C          -8.5060  -20.6013   23.5489 C.3     1  UNL1        0.0729
      6 H         -10.0498  -21.8106   24.2439 H       1  UNL1        0.1233
      7 C          -3.0097  -18.9799   20.5014 C.2     1  UNL1        0.1488
      8 C          -3.6937  -18.5452   21.7636 C.2     1  UNL1        0.0308
      9 C          -5.1324  -18.9609   21.6780 C.2     1  UNL1        0.0158
     10 C          -6.2821  -18.7990   22.6277 C.2     1  UNL1       -0.0033
     11 C          -7.6370  -19.3287   22.2623 C.2     1  UNL1       -0.0250
     12 C          -7.8422  -20.0204   20.9472 C.2     1  UNL1       -0.0240
     13 C          -6.6925  -20.1823   19.9975 C.3     1  UNL1        0.0714
     14 C          -5.3376  -19.6525   20.3629 C.2     1  UNL1        0.0641
     15 N          -4.0257  -19.6643   19.6357 N.2     1  UNL1       -0.2390
     16 N          -0.1176  -18.5551   19.8267 N.1     1  UNL1       -0.1893
     17 C          -1.5637  -18.7675   20.1640 C.1     1  UNL1        0.1197
     18 C          -8.8272  -17.7663   22.6765 C.3     1  UNL1        0.0317
     19 C         -10.0739  -17.2494   22.0217 C.ar    1  UNL1       -0.0218
     20 C         -11.0158  -16.3708   22.7905 C.ar    1  UNL1       -0.0043
     21 C         -12.2625  -15.8539   22.1357 C.ar    1  UNL1       -0.0003
     22 C         -12.5672  -16.2156   20.7122 C.ar    1  UNL1       -0.0000
     23 C         -11.6253  -17.0942   19.9434 C.ar    1  UNL1       -0.0003
     24 C         -10.3786  -17.6111   20.5982 C.ar    1  UNL1       -0.0043
@<TRIPOS>BOND
     1    16    17    3
     2    17     7    1
     3     7     8    2
     4     8     9    1
     5     9    10    2
     6    10    11    1
     7    11     1    1
     8     1    18    1
     9    18    19    1
    10    19    20   ar
    11    20    21   ar
    12    21    22   ar
    13    22    23   ar
    14    23    24   ar
    15     1     2    1
    16     2     3    1
    17     3     4    1
    18     4     5    1
    19    11    12    2
    20    12    13    1
    21    13    14    1
    22    14    15    2
    23    15     7    1
    24    14     9    1
    25     5     1    1
    26    24    19   ar
    27     4     6    1
@<TRIPOS>MOLECULE
*****
 24 27 0 0 0
SMALL
GASTEIGER

@<TRIPOS>ATOM
      1 C          -8.7973  -18.4595   23.2867 C.3     1  UNL1        0.0385
      2 C          -9.8221  -17.9737   24.2684 C.3     1  UNL1        0.0228
      3 C         -10.6372  -19.1531   24.7093 C.3     1  UNL1        0.0689
      4 N         -10.1163  -20.3679   24.0002 N.3     1  UNL1       -0.2972
      5 C          -8.9790  -19.9392   23.1209 C.3     1  UNL1        0.0729
      6 H         -10.8560  -20.7811   23.4324 H       1  UNL1        0.1233
      7 C          -3.0531  -18.8132   20.5232 C.2     1  UNL1        0.1488
      8 C          -3.6603  -18.5095   21.8608 C.2     1  UNL1        0.0308
      9 C          -5.1497  -18.6330   21.7326 C.2     1  UNL1        0.0158
     10 C          -6.2611  -18.4485   22.7229 C.2     1  UNL1       -0.0033
     11 C          -7.6858  -18.6440   22.2964 C.2     1  UNL1       -0.0250
     12 C          -7.9991  -19.0241   20.8796 C.2     1  UNL1       -0.0240
     13 C          -6.8877  -19.2087   19.8893 C.3     1  UNL1        0.0714
     14 C          -5.4631  -19.0131   20.3158 C.2     1  UNL1        0.0641
     15 N          -4.1673  -19.1245   19.5684 N.2     1  UNL1       -0.2390
     16 N          -0.1246  -18.8005   19.8722 N.1     1  UNL1       -0.1893
     17 C          -1.5889  -18.8069   20.1977 C.1     1  UNL1        0.1197
     18 C          -8.3831  -17.0184   23.2454 C.3     1  UNL1        0.0317
     19 C          -7.7543  -16.3840   24.4504 C.ar    1  UNL1       -0.0218
     20 C          -6.3653  -15.8240   24.3645 C.ar    1  UNL1       -0.0043
     21 C          -5.7366  -15.1896   25.5695 C.ar    1  UNL1       -0.0003
     22 C          -6.4967  -15.1151   26.8605 C.ar    1  UNL1       -0.0000
     23 C          -7.8856  -15.6750   26.9465 C.ar    1  UNL1       -0.0003
     24 C          -8.5145  -16.3095   25.7414 C.ar    1  UNL1       -0.0043
@<TRIPOS>BOND
     1    16    17    3
     2    17     7    1
     3     7     8    2
     4     8     9    1
     5     9    10    2
     6    10    11    1
     7    11     1    1
     8     1    18    1
     9    18    19    1
    10    19    20   ar
    11    20    21   ar
    12    21    22   ar
    13    22    23   ar
    14    23    24   ar
    15     1     2    1
    16     2     3    1
    17     3     4    1
    18     4     5    1
    19    11    12    2
    20    12    13    1
    21    13    14    1
    22    14    15    2
    23    15     7    1
    24    14     9    1
    25     5     1    1
    26    24    19   ar
    27     4     6    1
@<TRIPOS>MOLECULE
*****
 24 27 0 0 0
SMALL
GASTEIGER

@<TRIPOS>ATOM
      1 C          -7.9969  -16.9870   23.8458 C.3     1  UNL1        0.0385
      2 C          -9.1616  -16.6130   24.7140 C.3     1  UNL1        0.0228
      3 C          -8.8380  -15.3131   25.3888 C.3     1  UNL1        0.0689
      4 N          -7.4734  -14.8837   24.9378 N.3     1  UNL1       -0.2972
      5 C          -6.9536  -15.9183   23.9841 C.3     1  UNL1        0.0729
      6 H          -6.8503  -14.8101   25.7420 H       1  UNL1        0.1233
      7 C          -2.6307  -18.5795   20.7759 C.2     1  UNL1        0.1488
      8 C          -3.0865  -17.6846   21.8900 C.2     1  UNL1        0.0308
      9 C          -4.5680  -17.8588   22.0480 C.2     1  UNL1        0.0158
     10 C          -5.5577  -17.2340   22.9861 C.2     1  UNL1       -0.0033
     11 C          -7.0072  -17.6118   22.9077 C.2     1  UNL1       -0.0250
     12 C          -7.4669  -18.6145   21.8911 C.2     1  UNL1       -0.0240
     13 C          -6.4773  -19.2393   20.9530 C.3     1  UNL1        0.0714
     14 C          -5.0278  -18.8614   21.0315 C.2     1  UNL1        0.0641
     15 N          -3.8305  -19.3069   20.2453 N.2     1  UNL1       -0.2390
     16 N           0.1859  -18.8647   19.7832 N.1     1  UNL1       -0.1893
     17 C          -1.2224  -18.7221   20.2795 C.1     1  UNL1        0.1197
     18 C          -8.8334  -18.1864   23.5113 C.3     1  UNL1        0.0317
     19 C         -10.3265  -18.0627   23.4382 C.ar    1  UNL1       -0.0218
     20 C         -10.9602  -17.2679   22.3351 C.ar    1  UNL1       -0.0043
     21 C         -12.4532  -17.1442   22.2620 C.ar    1  UNL1       -0.0003
     22 C         -13.3127  -17.8152   23.2921 C.ar    1  UNL1       -0.0000
     23 C         -12.6791  -18.6100   24.3952 C.ar    1  UNL1       -0.0003
     24 C         -11.1859  -18.7337   24.4683 C.ar    1  UNL1       -0.0043
@<TRIPOS>BOND
     1    16    17    3
     2    17     7    1
     3     7     8    2
     4     8     9    1
     5     9    10    2
     6    10    11    1
     7    11     1    1
     8     1    18    1
     9    18    19    1
    10    19    20   ar
    11    20    21   ar
    12    21    22   ar
    13    22    23   ar
    14    23    24   ar
    15     1     2    1
    16     2     3    1
    17     3     4    1
    18     4     5    1
    19    11    12    2
    20    12    13    1
    21    13    14    1
    22    14    15    2
    23    15     7    1
    24    14     9    1
    25     5     1    1
    26    24    19   ar
    27     4     6    1
@<TRIPOS>MOLECULE
*****
 24 27 0 0 0
SMALL
GASTEIGER

@<TRIPOS>ATOM
      1 C          -6.6483  -17.0068   23.1316 C.3     1  UNL1        0.0385
      2 C          -5.1647  -17.0850   23.3384 C.3     1  UNL1        0.0228
      3 C          -4.6917  -15.7434   23.8140 C.3     1  UNL1        0.0689
      4 N          -5.8828  -14.8360   23.9011 N.3     1  UNL1       -0.2972
      5 C          -7.0922  -15.6169   23.4794 C.3     1  UNL1        0.0729
      6 H          -5.7543  -14.0356   23.2820 H       1  UNL1        0.1233
      7 C         -12.9026  -18.1561   23.6970 C.2     1  UNL1        0.1488
      8 C         -11.6810  -18.0351   24.5591 C.2     1  UNL1        0.0308
      9 C         -10.5122  -17.7367   23.6676 C.2     1  UNL1        0.0158
     10 C          -9.0579  -17.5146   23.9599 C.2     1  UNL1       -0.0033
     11 C          -8.1027  -17.2289   22.8392 C.2     1  UNL1       -0.0250
     12 C          -8.6019  -17.1654   21.4262 C.2     1  UNL1       -0.0240
     13 C         -10.0562  -17.3875   21.1338 C.3     1  UNL1        0.0714
     14 C         -11.0114  -17.6732   22.2545 C.2     1  UNL1        0.0641
     15 N         -12.4887  -17.9323   22.2727 N.2     1  UNL1       -0.2390
     16 N         -15.6849  -18.7424   24.6535 N.1     1  UNL1       -0.1893
     17 C         -14.2938  -18.4492   24.1753 C.1     1  UNL1        0.1197
     18 C          -6.5085  -18.4432   22.7227 C.3     1  UNL1        0.0317
     19 C          -5.3470  -18.8723   21.8760 C.ar    1  UNL1       -0.0218
     20 C          -4.0677  -19.3114   22.5247 C.ar    1  UNL1       -0.0043
     21 C          -2.9063  -19.7405   21.6781 C.ar    1  UNL1       -0.0003
     22 C          -3.0240  -19.7306   20.1827 C.ar    1  UNL1       -0.0000
     23 C          -4.3032  -19.2915   19.5340 C.ar    1  UNL1       -0.0003
     24 C          -5.4648  -18.8624   20.3807 C.ar    1  UNL1       -0.0043
@<TRIPOS>BOND
     1    16    17    3
     2    17     7    1
     3     7     8    2
     4     8     9    1
     5     9    10    2
     6    10    11    1
     7    11     1    1
     8     1    18    1
     9    18    19    1
    10    19    20   ar
    11    20    21   ar
    12    21    22   ar
    13    22    23   ar
    14    23    24   ar
    15     1     2    1
    16     2     3    1
    17     3     4    1
    18     4     5    1
    19    11    12    2
    20    12    13    1
    21    13    14    1
    22    14    15    2
    23    15     7    1
    24    14     9    1
    25     5     1    1
    26    24    19   ar
    27     4     6    1
@<TRIPOS>MOLECULE
*****
 24 27 0 0 0
SMALL
GASTEIGER

@<TRIPOS>ATOM
      1 C         -10.9722   -6.2851   17.9598 C.3     1  UNL1        0.0385
      2 C         -10.6942   -7.6761   17.4721 C.3     1  UNL1        0.0228
      3 C          -9.6037   -8.2563   18.3231 C.3     1  UNL1        0.0689
      4 N          -9.2078   -7.2240   19.3367 N.3     1  UNL1       -0.2972
      5 C         -10.0536   -6.0057   19.1123 C.3     1  UNL1        0.0729
      6 H          -8.2223   -6.9870   19.2227 H       1  UNL1        0.1233
      7 C         -12.0695   -0.0080   17.5717 C.2     1  UNL1        0.1488
      8 C         -11.3126   -1.0820   16.8482 C.2     1  UNL1        0.0308
      9 C         -11.5460   -2.3780   17.5666 C.2     1  UNL1        0.0158
     10 C         -11.0543   -3.7714   17.3085 C.2     1  UNL1       -0.0033
     11 C         -11.4639   -4.8916   18.2179 C.2     1  UNL1       -0.0250
     12 C         -12.3651   -4.6185   19.3855 C.2     1  UNL1       -0.0240
     13 C         -12.8567   -3.2251   19.6436 C.3     1  UNL1        0.0714
     14 C         -12.4472   -2.1048   18.7342 C.2     1  UNL1        0.0641
     15 N         -12.7707   -0.6402   18.7373 N.2     1  UNL1       -0.2390
     16 N         -12.1643    2.8946   16.8196 N.1     1  UNL1       -0.1893
     17 C         -12.1169    1.4433   17.1956 C.1     1  UNL1        0.1197
     18 C         -11.9936   -6.2732   16.8614 C.3     1  UNL1        0.0317
     19 C         -13.2889   -7.0097   17.0337 C.ar    1  UNL1       -0.0218
     20 C         -14.3745   -6.8680   16.0081 C.ar    1  UNL1       -0.0043
     21 C         -15.6698   -7.6045   16.1804 C.ar    1  UNL1       -0.0003
     22 C         -15.8797   -8.4826   17.3783 C.ar    1  UNL1       -0.0000
     23 C         -14.7942   -8.6243   18.4038 C.ar    1  UNL1       -0.0003
     24 C         -13.4988   -7.8878   18.2315 C.ar    1  UNL1       -0.0043
@<TRIPOS>BOND
     1    16    17    3
     2    17     7    1
     3     7     8    2
     4     8     9    1
     5     9    10    2
     6    10    11    1
     7    11     1    1
     8     1    18    1
     9    18    19    1
    10    19    20   ar
    11    20    21   ar
    12    21    22   ar
    13    22    23   ar
    14    23    24   ar
    15     1     2    1
    16     2     3    1
    17     3     4    1
    18     4     5    1
    19    11    12    2
    20    12    13    1
    21    13    14    1
    22    14    15    2
    23    15     7    1
    24    14     9    1
    25     5     1    1
    26    24    19   ar
    27     4     6    1
@<TRIPOS>MOLECULE
*****
 24 27 0 0 0
SMALL
GASTEIGER

@<TRIPOS>ATOM
      1 C           5.0084    1.8838   37.0018 C.3     1  UNL1        0.0385
      2 C           5.0589    2.8364   38.1594 C.3     1  UNL1        0.0228
      3 C           6.4263    2.7517   38.7701 C.3     1  UNL1        0.0689
      4 N           7.2209    1.7468   37.9900 N.3     1  UNL1       -0.2972
      5 C           6.3446    1.2103   36.8971 C.3     1  UNL1        0.0729
      6 H           7.5144    0.9862   38.6031 H       1  UNL1        0.1233
      7 C           2.8700   -0.1475   31.3398 C.2     1  UNL1        0.1488
      8 C           2.9380    1.1133   32.1496 C.2     1  UNL1        0.0308
      9 C           3.6202    0.7947   33.4470 C.2     1  UNL1        0.0158
     10 C           3.9651    1.6436   34.6346 C.2     1  UNL1       -0.0033
     11 C           4.6635    1.0348   35.8141 C.2     1  UNL1       -0.0250
     12 C           5.0171   -0.4229   35.8062 C.2     1  UNL1       -0.0240
     13 C           4.6722   -1.2718   34.6186 C.3     1  UNL1        0.0714
     14 C           3.9738   -0.6630   33.4390 C.2     1  UNL1        0.0641
     15 N           3.5101   -1.2453   32.1367 N.2     1  UNL1       -0.2390
     16 N           1.6652   -0.4248   28.6064 N.1     1  UNL1       -0.1893
     17 C           2.2676   -0.2862   29.9731 C.1     1  UNL1        0.1197
     18 C           3.6001    2.3797   36.8582 C.3     1  UNL1        0.0317
     19 C           2.5635    1.9981   37.8729 C.ar    1  UNL1       -0.0218
     20 C           2.5982    0.6385   38.5057 C.ar    1  UNL1       -0.0043
     21 C           1.5615    0.2568   39.5205 C.ar    1  UNL1       -0.0003
     22 C           0.4901    1.2347   39.9025 C.ar    1  UNL1       -0.0000
     23 C           0.4554    2.5943   39.2697 C.ar    1  UNL1       -0.0003
     24 C           1.4921    2.9760   38.2549 C.ar    1  UNL1       -0.0043
@<TRIPOS>BOND
     1    16    17    3
     2    17     7    1
     3     7     8    2
     4     8     9    1
     5     9    10    2
     6    10    11    1
     7    11     1    1
     8     1    18    1
     9    18    19    1
    10    19    20   ar
    11    20    21   ar
    12    21    22   ar
    13    22    23   ar
    14    23    24   ar
    15     1     2    1
    16     2     3    1
    17     3     4    1
    18     4     5    1
    19    11    12    2
    20    12    13    1
    21    13    14    1
    22    14    15    2
    23    15     7    1
    24    14     9    1
    25     5     1    1
    26    24    19   ar
    27     4     6    1
@<TRIPOS>MOLECULE
*****
 24 27 0 0 0
SMALL
GASTEIGER

@<TRIPOS>ATOM
      1 C         -10.9642   -6.1968   17.9680 C.3     1  UNL1        0.0385
      2 C         -10.3234   -7.5373   17.7622 C.3     1  UNL1        0.0228
      3 C          -9.2644   -7.7106   18.8102 C.3     1  UNL1        0.0689
      4 N          -9.2507   -6.4773   19.6638 N.3     1  UNL1       -0.2972
      5 C         -10.3013   -5.5417   19.1433 C.3     1  UNL1        0.0729
      6 H          -8.3346   -6.0316   19.6134 H       1  UNL1        0.1233
      7 C         -14.9343   -1.4201   19.4438 C.2     1  UNL1        0.1488
      8 C         -14.4070   -2.6921   20.0388 C.2     1  UNL1        0.0308
      9 C         -13.4646   -3.3108   19.0493 C.2     1  UNL1        0.0158
     10 C         -12.6495   -4.5693   19.0910 C.2     1  UNL1       -0.0033
     11 C         -11.7793   -4.9382   17.9263 C.2     1  UNL1       -0.0250
     12 C         -11.7242   -4.0486   16.7199 C.2     1  UNL1       -0.0240
     13 C         -12.5393   -2.7901   16.6781 C.3     1  UNL1        0.0714
     14 C         -13.4094   -2.4212   17.8429 C.2     1  UNL1        0.0641
     15 N         -14.3178   -1.2527   18.0867 N.2     1  UNL1       -0.2390
     16 N         -16.8804    0.4591   20.7406 N.1     1  UNL1       -0.1893
     17 C         -15.9074   -0.4805   20.0922 C.1     1  UNL1        0.1197
     18 C         -11.7976   -6.5888   16.7840 C.3     1  UNL1        0.0317
     19 C         -13.1291   -7.2482   16.9894 C.ar    1  UNL1       -0.0218
     20 C         -14.2245   -7.0561   15.9828 C.ar    1  UNL1       -0.0043
     21 C         -15.5560   -7.7155   16.1882 C.ar    1  UNL1       -0.0003
     22 C         -15.7922   -8.5671   17.4002 C.ar    1  UNL1       -0.0000
     23 C         -14.6969   -8.7593   18.4068 C.ar    1  UNL1       -0.0003
     24 C         -13.3653   -8.0999   18.2015 C.ar    1  UNL1       -0.0043
@<TRIPOS>BOND
     1    16    17    3
     2    17     7    1
     3     7     8    2
     4     8     9    1
     5     9    10    2
     6    10    11    1
     7    11     1    1
     8     1    18    1
     9    18    19    1
    10    19    20   ar
    11    20    21   ar
    12    21    22   ar
    13    22    23   ar
    14    23    24   ar
    15     1     2    1
    16     2     3    1
    17     3     4    1
    18     4     5    1
    19    11    12    2
    20    12    13    1
    21    13    14    1
    22    14    15    2
    23    15     7    1
    24    14     9    1
    25     5     1    1
    26    24    19   ar
    27     4     6    1
@<TRIPOS>MOLECULE
*****
 24 27 0 0 0
SMALL
GASTEIGER

@<TRIPOS>ATOM
      1 C         -10.6176   -5.6117   18.0883 C.3     1  UNL1        0.0385
      2 C         -10.5510   -7.1090   18.1488 C.3     1  UNL1        0.0228
      3 C          -9.4888   -7.4861   19.1385 C.3     1  UNL1        0.0689
      4 N          -8.8988   -6.2220   19.6896 N.3     1  UNL1       -0.2972
      5 C          -9.5965   -5.0635   19.0406 C.3     1  UNL1        0.0729
      6 H          -7.9010   -6.1861   19.4812 H       1  UNL1        0.1233
      7 C         -13.1617    0.2429   18.1766 C.2     1  UNL1        0.1488
      8 C         -13.3504   -1.0943   18.8293 C.2     1  UNL1        0.0308
      9 C         -12.3209   -2.0319   18.2714 C.2     1  UNL1        0.0158
     10 C         -12.0282   -3.4777   18.5429 C.2     1  UNL1       -0.0033
     11 C         -10.9104   -4.1657   17.8169 C.2     1  UNL1       -0.0250
     12 C         -10.0855   -3.4079   16.8193 C.2     1  UNL1       -0.0240
     13 C         -10.3782   -1.9621   16.5478 C.3     1  UNL1        0.0714
     14 C         -11.4960   -1.2741   17.2739 C.2     1  UNL1        0.0641
     15 N         -12.0156    0.1318   17.2152 N.2     1  UNL1       -0.2390
     16 N         -14.7905    2.7070   18.7015 N.1     1  UNL1       -0.1893
     17 C         -13.9761    1.4750   18.4390 C.1     1  UNL1        0.1197
     18 C         -11.6999   -5.8576   17.0794 C.3     1  UNL1        0.0317
     19 C         -12.9474   -6.5876   17.4805 C.ar    1  UNL1       -0.0218
     20 C         -13.5324   -7.6281   16.5722 C.ar    1  UNL1       -0.0043
     21 C         -14.7799   -8.3581   16.9733 C.ar    1  UNL1       -0.0003
     22 C         -15.4424   -8.0475   18.2828 C.ar    1  UNL1       -0.0000
     23 C         -14.8574   -7.0070   19.1911 C.ar    1  UNL1       -0.0003
     24 C         -13.6099   -6.2770   18.7900 C.ar    1  UNL1       -0.0043
@<TRIPOS>BOND
     1    16    17    3
     2    17     7    1
     3     7     8    2
     4     8     9    1
     5     9    10    2
     6    10    11    1
     7    11     1    1
     8     1    18    1
     9    18    19    1
    10    19    20   ar
    11    20    21   ar
    12    21    22   ar
    13    22    23   ar
    14    23    24   ar
    15     1     2    1
    16     2     3    1
    17     3     4    1
    18     4     5    1
    19    11    12    2
    20    12    13    1
    21    13    14    1
    22    14    15    2
    23    15     7    1
    24    14     9    1
    25     5     1    1
    26    24    19   ar
    27     4     6    1
