@<TRIPOS>MOLECULE
*****
 22 24 0 0 0
SMALL
GASTEIGER

@<TRIPOS>ATOM
      1 C          -9.2050  -19.1668   22.5895 C.ar    1  UNL1        0.0427
      2 C          -9.1134  -20.2225   23.6512 C.ar    1  UNL1        0.0077
      3 C         -10.1566  -20.2971   24.7265 C.ar    1  UNL1        0.0006
      4 C         -11.2912  -19.3162   24.7402 C.ar    1  UNL1        0.0013
      5 C         -11.3828  -18.2605   23.6785 C.ar    1  UNL1        0.0150
      6 C         -10.3397  -18.1858   22.6032 C.ar    1  UNL1        0.0540
      7 N         -10.4313  -17.1301   21.5415 N.pl3   1  UNL1       -0.3043
      8 C         -11.3993  -17.2896   20.4068 C.3     1  UNL1        0.1079
      9 C         -11.4908  -16.2340   19.3451 C.3     1  UNL1        0.0903
     10 N         -10.6145  -15.0188   19.4181 N.3     1  UNL1       -0.2946
     11 C          -9.6465  -14.8593   20.5529 C.3     1  UNL1        0.0903
     12 C          -9.5549  -15.9149   21.6145 C.3     1  UNL1        0.1079
     13 H         -11.2348  -14.2095   19.4442 H       1  UNL1        0.1233
     14 S          -8.1620  -19.0921   21.5141 S.3     1  UNL1       -0.0860
     15 C          -2.4452  -17.9740   22.9524 C.3     1  UNL1        0.0310
     16 C          -3.8744  -18.2535   22.5928 C.ar    1  UNL1       -0.0221
     17 C          -4.9681  -17.3804   23.1327 C.ar    1  UNL1       -0.0038
     18 C          -6.3974  -17.6599   22.7731 C.ar    1  UNL1        0.0058
     19 C          -6.7328  -18.8126   21.8737 C.ar    1  UNL1        0.0255
     20 C          -5.6390  -19.6857   21.3339 C.ar    1  UNL1       -0.0162
     21 C          -5.9744  -20.8383   20.4345 C.3     1  UNL1        0.0315
     22 C          -4.2099  -19.4062   21.6935 C.ar    1  UNL1       -0.0080
@<TRIPOS>BOND
     1    15    16    1
     2    16    17   ar
     3    17    18   ar
     4    18    19   ar
     5    19    14    1
     6    14     1    1
     7     1     2   ar
     8     2     3   ar
     9     3     4   ar
    10     4     5   ar
    11     5     6   ar
    12     6     7    1
    13     7     8    1
    14     8     9    1
    15     9    10    1
    16    10    11    1
    17    11    12    1
    18    19    20   ar
    19    20    21    1
    20    20    22   ar
    21    22    16   ar
    22     6     1   ar
    23    12     7    1
    24    10    13    1
@<TRIPOS>MOLECULE
*****
 22 24 0 0 0
SMALL
GASTEIGER

@<TRIPOS>ATOM
      1 C          -7.8416  -18.8323   21.4525 C.ar    1  UNL1        0.0427
      2 C          -8.1495  -19.6868   20.2587 C.ar    1  UNL1        0.0077
      3 C          -9.4129  -19.4627   19.4818 C.ar    1  UNL1        0.0006
      4 C         -10.3684  -18.3842   19.8986 C.ar    1  UNL1        0.0013
      5 C         -10.0606  -17.5297   21.0924 C.ar    1  UNL1        0.0150
      6 C          -8.7972  -17.7537   21.8693 C.ar    1  UNL1        0.0540
      7 N          -8.4893  -16.8993   23.0631 N.pl3   1  UNL1       -0.3043
      8 C          -7.6056  -15.6962   22.9164 C.3     1  UNL1        0.1079
      9 C          -7.2977  -14.8417   24.1102 C.3     1  UNL1        0.0903
     10 N          -7.8735  -15.1903   25.4506 N.3     1  UNL1       -0.2946
     11 C          -8.7573  -16.3935   25.5974 C.3     1  UNL1        0.0903
     12 C          -9.0652  -17.2480   24.4036 C.3     1  UNL1        0.1079
     13 H          -8.4201  -14.3847   25.7549 H       1  UNL1        0.1233
     14 S          -6.5782  -19.0563   22.2294 S.3     1  UNL1       -0.0860
     15 C          -1.2504  -18.3073   19.5735 C.3     1  UNL1        0.0310
     16 C          -2.5824  -18.4946   20.2375 C.ar    1  UNL1       -0.0221
     17 C          -3.6709  -19.2507   19.5350 C.ar    1  UNL1       -0.0038
     18 C          -5.0029  -19.4380   20.1990 C.ar    1  UNL1        0.0058
     19 C          -5.2463  -18.8691   21.5654 C.ar    1  UNL1        0.0255
     20 C          -4.1577  -18.1130   22.2679 C.ar    1  UNL1       -0.0162
     21 C          -4.4012  -17.5441   23.6343 C.3     1  UNL1        0.0315
     22 C          -2.8258  -17.9257   21.6039 C.ar    1  UNL1       -0.0080
@<TRIPOS>BOND
     1    15    16    1
     2    16    17   ar
     3    17    18   ar
     4    18    19   ar
     5    19    14    1
     6    14     1    1
     7     1     2   ar
     8     2     3   ar
     9     3     4   ar
    10     4     5   ar
    11     5     6   ar
    12     6     7    1
    13     7     8    1
    14     8     9    1
    15     9    10    1
    16    10    11    1
    17    11    12    1
    18    19    20   ar
    19    20    21    1
    20    20    22   ar
    21    22    16   ar
    22     6     1   ar
    23    12     7    1
    24    10    13    1
@<TRIPOS>MOLECULE
*****
 22 24 0 0 0
SMALL
GASTEIGER

@<TRIPOS>ATOM
      1 C          -8.7534  -18.7666   21.5808 C.ar    1  UNL1        0.0427
      2 C          -9.3133  -19.4625   20.3757 C.ar    1  UNL1        0.0077
      3 C         -10.3862  -18.8037   19.5602 C.ar    1  UNL1        0.0006
      4 C         -10.8990  -17.4490   19.9496 C.ar    1  UNL1        0.0013
      5 C         -10.3391  -16.7531   21.1547 C.ar    1  UNL1        0.0150
      6 C          -9.2663  -17.4118   21.9702 C.ar    1  UNL1        0.0540
      7 N          -8.7063  -16.7158   23.1753 N.pl3   1  UNL1       -0.3043
      8 C          -9.1711  -17.1024   24.5480 C.3     1  UNL1        0.1079
      9 C          -8.6111  -16.4064   25.7531 C.3     1  UNL1        0.0903
     10 N          -7.5865  -15.3239   25.5853 N.3     1  UNL1       -0.2946
     11 C          -7.1217  -14.9373   24.2125 C.3     1  UNL1        0.0903
     12 C          -7.6816  -15.6333   23.0075 C.3     1  UNL1        0.1079
     13 H          -6.7592  -15.6186   26.1042 H       1  UNL1        0.1233
     14 S          -7.6806  -19.4253   22.3963 S.3     1  UNL1       -0.0860
     15 C          -1.9105  -18.6667   20.9365 C.3     1  UNL1        0.0310
     16 C          -3.3531  -18.8563   21.3015 C.ar    1  UNL1       -0.0221
     17 C          -3.9716  -18.0136   22.3772 C.ar    1  UNL1       -0.0038
     18 C          -5.4142  -18.2032   22.7422 C.ar    1  UNL1        0.0058
     19 C          -6.2381  -19.2356   22.0314 C.ar    1  UNL1        0.0255
     20 C          -5.6195  -20.0784   20.9556 C.ar    1  UNL1       -0.0162
     21 C          -6.4435  -21.1108   20.2448 C.3     1  UNL1        0.0315
     22 C          -4.1770  -19.8887   20.5907 C.ar    1  UNL1       -0.0080
@<TRIPOS>BOND
     1    15    16    1
     2    16    17   ar
     3    17    18   ar
     4    18    19   ar
     5    19    14    1
     6    14     1    1
     7     1     2   ar
     8     2     3   ar
     9     3     4   ar
    10     4     5   ar
    11     5     6   ar
    12     6     7    1
    13     7     8    1
    14     8     9    1
    15     9    10    1
    16    10    11    1
    17    11    12    1
    18    19    20   ar
    19    20    21    1
    20    20    22   ar
    21    22    16   ar
    22     6     1   ar
    23    12     7    1
    24    10    13    1
@<TRIPOS>MOLECULE
*****
 22 24 0 0 0
SMALL
GASTEIGER

@<TRIPOS>ATOM
      1 C          -7.3721  -16.9672   23.0324 C.ar    1  UNL1        0.0427
      2 C          -7.7475  -15.8370   23.9444 C.ar    1  UNL1        0.0077
      3 C          -6.6996  -15.1755   24.7896 C.ar    1  UNL1        0.0006
      4 C          -5.2763  -15.6442   24.7228 C.ar    1  UNL1        0.0013
      5 C          -4.9009  -16.7744   23.8108 C.ar    1  UNL1        0.0150
      6 C          -5.9487  -17.4359   22.9656 C.ar    1  UNL1        0.0540
      7 N          -5.5733  -18.5661   22.0536 N.pl3   1  UNL1       -0.3043
      8 C          -6.5518  -19.6711   21.7866 C.3     1  UNL1        0.1079
      9 C          -6.1763  -20.8013   20.8746 C.3     1  UNL1        0.0903
     10 N          -4.8224  -20.8264   20.2295 N.3     1  UNL1       -0.2946
     11 C          -3.8437  -19.7213   20.4965 C.3     1  UNL1        0.0903
     12 C          -4.2192  -18.5911   21.4085 C.3     1  UNL1        0.1079
     13 H          -4.9768  -20.8458   19.2215 H       1  UNL1        0.1233
     14 S          -8.4199  -17.6287   22.1872 S.3     1  UNL1       -0.0860
     15 C         -14.0404  -18.1329   24.2259 C.3     1  UNL1        0.0310
     16 C         -12.6353  -18.0068   23.7162 C.ar    1  UNL1       -0.0221
     17 C         -11.5462  -18.8561   24.3015 C.ar    1  UNL1       -0.0038
     18 C         -10.1410  -18.7301   23.7918 C.ar    1  UNL1        0.0058
     19 C          -9.8250  -17.7547   22.6969 C.ar    1  UNL1        0.0255
     20 C         -10.9142  -16.9055   22.1116 C.ar    1  UNL1       -0.0162
     21 C         -10.5982  -15.9301   21.0167 C.3     1  UNL1        0.0315
     22 C         -12.3193  -17.0315   22.6213 C.ar    1  UNL1       -0.0080
@<TRIPOS>BOND
     1    15    16    1
     2    16    17   ar
     3    17    18   ar
     4    18    19   ar
     5    19    14    1
     6    14     1    1
     7     1     2   ar
     8     2     3   ar
     9     3     4   ar
    10     4     5   ar
    11     5     6   ar
    12     6     7    1
    13     7     8    1
    14     8     9    1
    15     9    10    1
    16    10    11    1
    17    11    12    1
    18    19    20   ar
    19    20    21    1
    20    20    22   ar
    21    22    16   ar
    22     6     1   ar
    23    12     7    1
    24    10    13    1
@<TRIPOS>MOLECULE
*****
 22 24 0 0 0
SMALL
GASTEIGER

@<TRIPOS>ATOM
      1 C          -7.1792  -17.1255   22.9784 C.ar    1  UNL1        0.0427
      2 C          -7.5718  -16.0247   23.9187 C.ar    1  UNL1        0.0077
      3 C          -6.5326  -15.3632   24.7746 C.ar    1  UNL1        0.0006
      4 C          -5.1008  -15.8025   24.6902 C.ar    1  UNL1        0.0013
      5 C          -4.7082  -16.9033   23.7500 C.ar    1  UNL1        0.0150
      6 C          -5.7474  -17.5648   22.8941 C.ar    1  UNL1        0.0540
      7 N          -5.3548  -18.6656   21.9538 N.pl3   1  UNL1       -0.3043
      8 C          -4.0096  -18.6413   21.2906 C.3     1  UNL1        0.1079
      9 C          -3.6170  -19.7421   20.3504 C.3     1  UNL1        0.0903
     10 N          -4.5696  -20.8672   20.0733 N.3     1  UNL1       -0.2946
     11 C          -5.9148  -20.8915   20.7365 C.3     1  UNL1        0.0903
     12 C          -6.3074  -19.7907   21.6768 C.3     1  UNL1        0.1079
     13 H          -4.0937  -21.7287   20.3411 H       1  UNL1        0.1233
     14 S          -8.2183  -17.7870   22.1226 S.3     1  UNL1       -0.0860
     15 C         -13.9268  -17.9968   23.9580 C.3     1  UNL1        0.0310
     16 C         -12.4997  -17.9444   23.4991 C.ar    1  UNL1       -0.0221
     17 C         -12.0139  -16.7773   22.6917 C.ar    1  UNL1       -0.0038
     18 C         -10.5867  -16.7248   22.2328 C.ar    1  UNL1        0.0058
     19 C          -9.6454  -17.8394   22.5814 C.ar    1  UNL1        0.0255
     20 C         -10.1312  -19.0065   23.3889 C.ar    1  UNL1       -0.0162
     21 C          -9.1899  -20.1211   23.7375 C.3     1  UNL1        0.0315
     22 C         -11.5583  -19.0590   23.8477 C.ar    1  UNL1       -0.0080
@<TRIPOS>BOND
     1    15    16    1
     2    16    17   ar
     3    17    18   ar
     4    18    19   ar
     5    19    14    1
     6    14     1    1
     7     1     2   ar
     8     2     3   ar
     9     3     4   ar
    10     4     5   ar
    11     5     6   ar
    12     6     7    1
    13     7     8    1
    14     8     9    1
    15     9    10    1
    16    10    11    1
    17    11    12    1
    18    19    20   ar
    19    20    21    1
    20    20    22   ar
    21    22    16   ar
    22     6     1   ar
    23    12     7    1
    24    10    13    1
@<TRIPOS>MOLECULE
*****
 22 24 0 0 0
SMALL
GASTEIGER

@<TRIPOS>ATOM
      1 C          -7.3922  -16.0922   24.6338 C.ar    1  UNL1        0.0427
      2 C          -6.3303  -15.4386   25.4677 C.ar    1  UNL1        0.0077
      3 C          -6.4788  -15.3788   26.9591 C.ar    1  UNL1        0.0006
      4 C          -7.6891  -15.9726   27.6167 C.ar    1  UNL1        0.0013
      5 C          -8.7510  -16.6263   26.7829 C.ar    1  UNL1        0.0150
      6 C          -8.6025  -16.6861   25.2915 C.ar    1  UNL1        0.0540
      7 N          -9.6644  -17.3397   24.4577 N.pl3   1  UNL1       -0.3043
      8 C         -10.5240  -16.5088   23.5519 C.3     1  UNL1        0.1079
      9 C         -11.5859  -17.1624   22.7181 C.3     1  UNL1        0.0903
     10 N         -11.7881  -18.6470   22.7901 N.3     1  UNL1       -0.2946
     11 C         -10.9284  -19.4779   23.6960 C.3     1  UNL1        0.0903
     12 C          -9.8666  -18.8243   24.5298 C.3     1  UNL1        0.1079
     13 H         -11.6558  -19.0083   21.8455 H       1  UNL1        0.1233
     14 S          -7.2437  -16.1520   23.1424 S.3     1  UNL1       -0.0860
     15 C          -5.8038  -21.3307   20.4763 C.3     1  UNL1        0.0310
     16 C          -6.1638  -20.0360   21.1429 C.ar    1  UNL1       -0.0221
     17 C          -7.5510  -19.4821   21.0056 C.ar    1  UNL1       -0.0038
     18 C          -7.9110  -18.1874   21.6721 C.ar    1  UNL1        0.0058
     19 C          -6.8838  -17.4466   22.4759 C.ar    1  UNL1        0.0255
     20 C          -5.4965  -18.0006   22.6132 C.ar    1  UNL1       -0.0162
     21 C          -4.4693  -17.2599   23.4170 C.3     1  UNL1        0.0315
     22 C          -5.1366  -19.2952   21.9467 C.ar    1  UNL1       -0.0080
@<TRIPOS>BOND
     1    15    16    1
     2    16    17   ar
     3    17    18   ar
     4    18    19   ar
     5    19    14    1
     6    14     1    1
     7     1     2   ar
     8     2     3   ar
     9     3     4   ar
    10     4     5   ar
    11     5     6   ar
    12     6     7    1
    13     7     8    1
    14     8     9    1
    15     9    10    1
    16    10    11    1
    17    11    12    1
    18    19    20   ar
    19    20    21    1
    20    20    22   ar
    21    22    16   ar
    22     6     1   ar
    23    12     7    1
    24    10    13    1
@<TRIPOS>MOLECULE
*****
 22 24 0 0 0
SMALL
GASTEIGER

@<TRIPOS>ATOM
      1 C          -8.1979  -18.0183   21.6360 C.ar    1  UNL1        0.0427
      2 C          -8.3928  -19.1102   20.6261 C.ar    1  UNL1        0.0077
      3 C          -7.3296  -20.1503   20.4315 C.ar    1  UNL1        0.0006
      4 C          -6.0716  -20.0985   21.2468 C.ar    1  UNL1        0.0013
      5 C          -5.8767  -19.0067   22.2567 C.ar    1  UNL1        0.0150
      6 C          -6.9398  -17.9666   22.4513 C.ar    1  UNL1        0.0540
      7 N          -6.7450  -16.8747   23.4612 N.pl3   1  UNL1       -0.3043
      8 C          -5.3986  -16.2333   23.6219 C.3     1  UNL1        0.1079
      9 C          -5.2038  -15.1415   24.6318 C.3     1  UNL1        0.0903
     10 N          -6.3553  -14.6911   25.4810 N.3     1  UNL1       -0.2946
     11 C          -7.7017  -15.3325   25.3204 C.3     1  UNL1        0.0903
     12 C          -7.8966  -16.4244   24.3105 C.3     1  UNL1        0.1079
     13 H          -6.4806  -13.6946   25.3026 H       1  UNL1        0.1233
     14 S          -9.2611  -16.9783   21.8307 S.3     1  UNL1       -0.0860
     15 C         -14.4451  -18.4451   24.4718 C.3     1  UNL1        0.0310
     16 C         -13.1490  -18.0784   23.8115 C.ar    1  UNL1       -0.0221
     17 C         -11.8484  -18.5132   24.4191 C.ar    1  UNL1       -0.0038
     18 C         -10.5523  -18.1465   23.7588 C.ar    1  UNL1        0.0058
     19 C         -10.5570  -17.3450   22.4910 C.ar    1  UNL1        0.0255
     20 C         -11.8578  -16.9101   21.8833 C.ar    1  UNL1       -0.0162
     21 C         -11.8624  -16.1086   20.6155 C.3     1  UNL1        0.0315
     22 C         -13.1537  -17.2768   22.5436 C.ar    1  UNL1       -0.0080
@<TRIPOS>BOND
     1    15    16    1
     2    16    17   ar
     3    17    18   ar
     4    18    19   ar
     5    19    14    1
     6    14     1    1
     7     1     2   ar
     8     2     3   ar
     9     3     4   ar
    10     4     5   ar
    11     5     6   ar
    12     6     7    1
    13     7     8    1
    14     8     9    1
    15     9    10    1
    16    10    11    1
    17    11    12    1
    18    19    20   ar
    19    20    21    1
    20    20    22   ar
    21    22    16   ar
    22     6     1   ar
    23    12     7    1
    24    10    13    1
@<TRIPOS>MOLECULE
*****
 22 24 0 0 0
SMALL
GASTEIGER

@<TRIPOS>ATOM
      1 C          -6.8737  -16.4405   24.0223 C.ar    1  UNL1        0.0427
      2 C          -7.9154  -15.9439   24.9804 C.ar    1  UNL1        0.0077
      3 C          -7.5042  -15.3676   26.3029 C.ar    1  UNL1        0.0006
      4 C          -6.0513  -15.2880   26.6671 C.ar    1  UNL1        0.0013
      5 C          -5.0095  -15.7846   25.7090 C.ar    1  UNL1        0.0150
      6 C          -5.4207  -16.3609   24.3865 C.ar    1  UNL1        0.0540
      7 N          -4.3790  -16.8575   23.4284 N.pl3   1  UNL1       -0.3043
      8 C          -4.2297  -18.3291   23.1793 C.3     1  UNL1        0.1079
      9 C          -3.1880  -18.8258   22.2211 C.3     1  UNL1        0.0903
     10 N          -2.2955  -17.8508   21.5120 N.3     1  UNL1       -0.2946
     11 C          -2.4447  -16.3791   21.7611 C.3     1  UNL1        0.0903
     12 C          -3.4864  -15.8825   22.7192 C.3     1  UNL1        0.1079
     13 H          -2.4363  -17.9960   20.5122 H       1  UNL1        0.1233
     14 S          -7.2848  -17.0168   22.6998 S.3     1  UNL1       -0.0860
     15 C         -13.0986  -17.8299   21.4591 C.3     1  UNL1        0.0310
     16 C         -11.6451  -17.6266   21.7693 C.ar    1  UNL1       -0.0221
     17 C         -11.0239  -16.2721   21.5978 C.ar    1  UNL1       -0.0038
     18 C          -9.5705  -16.0688   21.9080 C.ar    1  UNL1        0.0058
     19 C          -8.7382  -17.2200   22.3897 C.ar    1  UNL1        0.0255
     20 C          -9.3595  -18.5746   22.5612 C.ar    1  UNL1       -0.0162
     21 C          -8.5272  -19.7258   23.0429 C.3     1  UNL1        0.0315
     22 C         -10.8129  -18.7778   22.2510 C.ar    1  UNL1       -0.0080
@<TRIPOS>BOND
     1    15    16    1
     2    16    17   ar
     3    17    18   ar
     4    18    19   ar
     5    19    14    1
     6    14     1    1
     7     1     2   ar
     8     2     3   ar
     9     3     4   ar
    10     4     5   ar
    11     5     6   ar
    12     6     7    1
    13     7     8    1
    14     8     9    1
    15     9    10    1
    16    10    11    1
    17    11    12    1
    18    19    20   ar
    19    20    21    1
    20    20    22   ar
    21    22    16   ar
    22     6     1   ar
    23    12     7    1
    24    10    13    1
@<TRIPOS>MOLECULE
*****
 22 24 0 0 0
SMALL
GASTEIGER

@<TRIPOS>ATOM
      1 C          -8.8647  -18.4577   21.0176 C.ar    1  UNL1        0.0427
      2 C          -9.7659  -19.1410   20.0321 C.ar    1  UNL1        0.0077
      3 C          -9.2138  -20.1901   19.1131 C.ar    1  UNL1        0.0006
      4 C          -7.7606  -20.5560   19.1795 C.ar    1  UNL1        0.0013
      5 C          -6.8595  -19.8727   20.1649 C.ar    1  UNL1        0.0150
      6 C          -7.4115  -18.8236   21.0840 C.ar    1  UNL1        0.0540
      7 N          -6.5103  -18.1404   22.0694 N.pl3   1  UNL1       -0.3043
      8 C          -5.0987  -18.6146   22.2489 C.3     1  UNL1        0.1079
      9 C          -4.1975  -17.9314   23.2344 C.3     1  UNL1        0.0903
     10 N          -4.7080  -16.7739   24.0403 N.3     1  UNL1       -0.2946
     11 C          -6.1197  -16.2996   23.8608 C.3     1  UNL1        0.0903
     12 C          -7.0209  -16.9828   22.8753 C.3     1  UNL1        0.1079
     13 H          -4.1020  -15.9802   23.8322 H       1  UNL1        0.1233
     14 S          -9.4167  -17.4086   21.9366 S.3     1  UNL1       -0.0860
     15 C         -14.5210  -18.4215   24.9233 C.3     1  UNL1        0.0310
     16 C         -13.2449  -18.1683   24.1766 C.ar    1  UNL1       -0.0221
     17 C         -11.9497  -18.7173   24.6972 C.ar    1  UNL1       -0.0038
     18 C         -10.6736  -18.4641   23.9506 C.ar    1  UNL1        0.0058
     19 C         -10.6927  -17.6619   22.6832 C.ar    1  UNL1        0.0255
     20 C         -11.9880  -17.1129   22.1626 C.ar    1  UNL1       -0.0162
     21 C         -12.0071  -16.3106   20.8953 C.3     1  UNL1        0.0315
     22 C         -13.2640  -17.3661   22.9093 C.ar    1  UNL1       -0.0080
@<TRIPOS>BOND
     1    15    16    1
     2    16    17   ar
     3    17    18   ar
     4    18    19   ar
     5    19    14    1
     6    14     1    1
     7     1     2   ar
     8     2     3   ar
     9     3     4   ar
    10     4     5   ar
    11     5     6   ar
    12     6     7    1
    13     7     8    1
    14     8     9    1
    15     9    10    1
    16    10    11    1
    17    11    12    1
    18    19    20   ar
    19    20    21    1
    20    20    22   ar
    21    22    16   ar
    22     6     1   ar
    23    12     7    1
    24    10    13    1
