@<TRIPOS>MOLECULE
*****
 43 47 0 0 0
SMALL
GASTEIGER

@<TRIPOS>ATOM
      1 C           5.6230    0.4637   26.8267 C.3     1  UNL1        0.1139
      2 C           5.0317   -1.3973   22.7725 C.ar    1  UNL1       -0.0000
      3 C           6.2156   -0.5117   23.0258 C.ar    1  UNL1       -0.0003
      4 C           6.4127    0.1086   24.3772 C.ar    1  UNL1       -0.0026
      5 C           5.4259   -0.1566   25.4753 C.ar    1  UNL1       -0.0029
      6 C           4.2421   -1.0422   25.2221 C.ar    1  UNL1       -0.0026
      7 C           4.0449   -1.6625   23.8706 C.ar    1  UNL1       -0.0003
      8 C           4.8392   -1.8167   18.8308 C.ar    1  UNL1        0.0534
      9 C           4.4404   -3.2584   18.7183 C.ar    1  UNL1        0.0045
     10 C           4.2387   -4.0796   19.9571 C.ar    1  UNL1        0.0001
     11 C           4.4358   -3.4592   21.3086 C.ar    1  UNL1        0.0000
     12 C           4.8346   -2.0176   21.4211 C.ar    1  UNL1        0.0001
     13 C           5.0363   -1.1964   20.1822 C.ar    1  UNL1        0.0045
     14 C           6.3831    0.7971   16.2746 C.3     1  UNL1        0.1109
     15 N           6.1814   -0.0241   17.5134 N.am    1  UNL1       -0.2992
     16 C           5.0409   -0.9954   17.5920 C.2     1  UNL1        0.2459
     17 O           4.1023   -1.1453   16.4316 O.2     1  UNL1       -0.2701
     18 H           6.7975    0.0743   18.2750 H       1  UNL1        0.1498
     19 N           6.9167    0.2679   27.5604 N.am    1  UNL1       -0.2727
     20 C           7.9305    1.3726   27.6009 C.3     1  UNL1        0.1152
     21 C           7.1964   -1.0326   28.2536 C.2     1  UNL1        0.2491
     22 O           8.4900   -1.2284   28.9872 O.2     1  UNL1       -0.2727
     23 C           6.1825   -2.1373   28.2131 C.3     1  UNL1        0.1943
     24 N           6.6010   -3.5501   28.4944 N.ar    1  UNL1       -0.2839
     25 C           6.6159   -4.0612   29.9046 C.ar    1  UNL1        0.2806
     26 O           6.2123   -3.1596   31.0334 O.2     1  UNL1       -0.2652
     27 C           7.0343   -5.4739   30.1858 C.ar    1  UNL1        0.1595
     28 N           7.4378   -6.3755   29.0570 N.ar    1  UNL1       -0.2374
     29 C           7.4229   -5.8644   27.6469 C.ar    1  UNL1        0.0970
     30 C           7.8265   -6.7660   26.5180 C.ar    1  UNL1        0.0160
     31 C           7.8116   -6.2548   25.1079 C.ar    1  UNL1       -0.0242
     32 C           8.2151   -7.1564   23.9790 C.3     1  UNL1        0.0307
     33 C           7.3931   -4.8421   24.8266 C.ar    1  UNL1       -0.0243
     34 C           7.3782   -4.3310   23.4164 C.3     1  UNL1        0.0307
     35 C           6.9896   -3.9405   25.9554 C.ar    1  UNL1        0.0142
     36 C           7.0045   -4.4517   27.3656 C.ar    1  UNL1        0.0803
     37 C           4.5265    1.2798   27.4446 C.3     1  UNL1        0.0968
     38 N           3.5709    0.6435   28.4099 N.3     1  UNL1       -0.2667
     39 C           4.0160    0.3261   29.8068 C.3     1  UNL1        0.1047
     40 C           3.0604   -0.3102   30.7721 C.3     1  UNL1        0.1595
     41 O           1.6596   -0.6291   30.3406 O.3     1  UNL1       -0.3508
     42 C           1.2145   -0.3118   28.9438 C.3     1  UNL1        0.1595
     43 C           2.1702    0.3245   27.9784 C.3     1  UNL1        0.1047
@<TRIPOS>BOND
     1    14    15    1
     2    15    16   am
     3    16    17    2
     4    16     8    1
     5     8     9   ar
     6     9    10   ar
     7    10    11   ar
     8    11    12   ar
     9    12     2    1
    10     2     3   ar
    11     3     4   ar
    12     4     5   ar
    13     5     1    1
    14     1    37    1
    15    37    38    1
    16    38    39    1
    17    39    40    1
    18    40    41    1
    19    41    42    1
    20    42    43    1
    21     1    19    1
    22    19    20    1
    23    19    21   am
    24    21    22    2
    25    21    23    1
    26    23    24    1
    27    24    25   ar
    28    25    26    2
    29    25    27   ar
    30    27    28   ar
    31    28    29   ar
    32    29    30   ar
    33    30    31   ar
    34    31    32    1
    35    31    33   ar
    36    33    34    1
    37    33    35   ar
    38    35    36   ar
    39     5     6   ar
    40     6     7   ar
    41    12    13   ar
    42    13     8   ar
    43     7     2   ar
    44    43    38    1
    45    36    24   ar
    46    36    29   ar
    47    15    18    1
@<TRIPOS>MOLECULE
*****
 43 47 0 0 0
SMALL
GASTEIGER

@<TRIPOS>ATOM
      1 C           4.2918   -2.2078   19.0498 C.3     1  UNL1        0.1139
      2 C           1.2339    1.0918   19.1584 C.ar    1  UNL1       -0.0000
      3 C           2.4631    1.2359   18.3109 C.ar    1  UNL1       -0.0003
      4 C           3.4824    0.1361   18.2747 C.ar    1  UNL1       -0.0026
      5 C           3.2726   -1.1080   19.0860 C.ar    1  UNL1       -0.0029
      6 C           2.0434   -1.2522   19.9336 C.ar    1  UNL1       -0.0026
      7 C           1.0241   -0.1523   19.9698 C.ar    1  UNL1       -0.0003
      8 C          -1.7374    3.4115   20.3995 C.ar    1  UNL1        0.0534
      9 C          -1.8240    4.3914   19.2670 C.ar    1  UNL1        0.0045
     10 C          -0.8913    4.2713   18.0984 C.ar    1  UNL1        0.0001
     11 C           0.1280    3.1714   18.0622 C.ar    1  UNL1        0.0000
     12 C           0.2146    2.1916   19.1946 C.ar    1  UNL1        0.0001
     13 C          -0.7181    2.3116   20.3633 C.ar    1  UNL1        0.0045
     14 C          -4.9939    3.0979   22.6460 C.3     1  UNL1        0.1109
     15 N          -4.0612    2.9779   21.4773 N.am    1  UNL1       -0.2992
     16 C          -2.6700    3.5315   21.5681 C.2     1  UNL1        0.2459
     17 O          -2.2116    4.2051   22.8275 O.2     1  UNL1       -0.2701
     18 H          -4.3621    2.5358   20.6508 H       1  UNL1        0.1498
     19 N           4.1099   -3.4274   19.9040 N.am    1  UNL1       -0.2727
     20 C           3.5205   -4.6745   19.3148 C.3     1  UNL1        0.1152
     21 C           4.5175   -3.3997   21.3473 C.2     1  UNL1        0.2491
     22 O           4.3356   -4.6193   22.2015 O.2     1  UNL1       -0.2727
     23 C           5.1069   -2.1526   21.9365 C.3     1  UNL1        0.1943
     24 N           5.2026   -1.9991   23.4256 N.ar    1  UNL1       -0.2839
     25 C           6.2912   -2.6997   24.1833 C.ar    1  UNL1        0.2806
     26 O           7.2841   -3.5537   23.4519 O.2     1  UNL1       -0.2652
     27 C           6.3869   -2.5463   25.6723 C.ar    1  UNL1        0.1595
     28 N           5.3940   -1.6923   26.4036 N.ar    1  UNL1       -0.2374
     29 C           4.3054   -0.9917   25.6459 C.ar    1  UNL1        0.0970
     30 C           3.3125   -0.1377   26.3773 C.ar    1  UNL1        0.0160
     31 C           2.2240    0.5629   25.6196 C.ar    1  UNL1       -0.0242
     32 C           1.2311    1.4169   26.3509 C.3     1  UNL1        0.0307
     33 C           2.1282    0.4095   24.1305 C.ar    1  UNL1       -0.0243
     34 C           1.0397    1.1100   23.3728 C.3     1  UNL1        0.0307
     35 C           3.1211   -0.4445   23.3991 C.ar    1  UNL1        0.0142
     36 C           4.2097   -1.1451   24.1569 C.ar    1  UNL1        0.0803
     37 C           5.4931   -2.0881   18.1594 C.3     1  UNL1        0.0968
     38 N           6.7959   -1.5990   18.7193 N.3     1  UNL1       -0.2667
     39 C           7.7071   -2.5491   19.4385 C.3     1  UNL1        0.1047
     40 C           9.0099   -2.0600   19.9984 C.3     1  UNL1        0.1595
     41 O           9.4015   -0.6208   19.8392 O.3     1  UNL1       -0.3508
     42 C           8.4903    0.3293   19.1201 C.3     1  UNL1        0.1595
     43 C           7.1875   -0.1598   18.5602 C.3     1  UNL1        0.1047
@<TRIPOS>BOND
     1    14    15    1
     2    15    16   am
     3    16    17    2
     4    16     8    1
     5     8     9   ar
     6     9    10   ar
     7    10    11   ar
     8    11    12   ar
     9    12     2    1
    10     2     3   ar
    11     3     4   ar
    12     4     5   ar
    13     5     1    1
    14     1    37    1
    15    37    38    1
    16    38    39    1
    17    39    40    1
    18    40    41    1
    19    41    42    1
    20    42    43    1
    21     1    19    1
    22    19    20    1
    23    19    21   am
    24    21    22    2
    25    21    23    1
    26    23    24    1
    27    24    25   ar
    28    25    26    2
    29    25    27   ar
    30    27    28   ar
    31    28    29   ar
    32    29    30   ar
    33    30    31   ar
    34    31    32    1
    35    31    33   ar
    36    33    34    1
    37    33    35   ar
    38    35    36   ar
    39     5     6   ar
    40     6     7   ar
    41    12    13   ar
    42    13     8   ar
    43     7     2   ar
    44    43    38    1
    45    36    24   ar
    46    36    29   ar
    47    15    18    1
@<TRIPOS>MOLECULE
*****
 43 47 0 0 0
SMALL
GASTEIGER

@<TRIPOS>ATOM
      1 C           4.9147    0.4837   28.2242 C.3     1  UNL1        0.1139
      2 C           3.3276   -0.1396   24.0598 C.ar    1  UNL1       -0.0000
      3 C           3.6814   -1.3219   24.9124 C.ar    1  UNL1       -0.0003
      4 C           4.2104   -1.1142   26.3005 C.ar    1  UNL1       -0.0026
      5 C           4.3857    0.2759   26.8361 C.ar    1  UNL1       -0.0029
      6 C           4.0319    1.4583   25.9836 C.ar    1  UNL1       -0.0026
      7 C           3.5029    1.2506   24.5953 C.ar    1  UNL1       -0.0003
      8 C           2.9421   -1.5297   20.3627 C.ar    1  UNL1        0.0534
      9 C           1.7405   -0.7628   19.8953 C.ar    1  UNL1        0.0045
     10 C           1.0681    0.2118   20.8162 C.ar    1  UNL1        0.0001
     11 C           1.5971    0.4195   22.2044 C.ar    1  UNL1        0.0000
     12 C           2.7986   -0.3473   22.6716 C.ar    1  UNL1        0.0001
     13 C           3.4711   -1.3219   21.7508 C.ar    1  UNL1        0.0045
     14 C           4.5059   -4.8966   18.9596 C.3     1  UNL1        0.1109
     15 N           3.8335   -3.9220   19.8804 N.am    1  UNL1       -0.2992
     16 C           3.6145   -2.5043   19.4418 C.2     1  UNL1        0.2459
     17 O           4.0680   -2.0613   18.0824 O.2     1  UNL1       -0.2701
     18 H           3.5358   -4.2127   20.7727 H       1  UNL1        0.1498
     19 N           6.3794    0.3168   28.5014 N.am    1  UNL1       -0.2727
     20 C           7.3272    1.4478   28.2324 C.3     1  UNL1        0.1152
     21 C           6.8962   -0.9811   29.0477 C.2     1  UNL1        0.2491
     22 O           8.3609   -1.1480   29.3250 O.2     1  UNL1       -0.2727
     23 C           5.9483   -2.1121   29.3168 C.3     1  UNL1        0.1943
     24 N           6.4783   -3.4967   29.5449 N.ar    1  UNL1       -0.2839
     25 C           6.6661   -4.0070   30.9429 C.ar    1  UNL1        0.2806
     26 O           6.3240   -3.1327   32.1127 O.2     1  UNL1       -0.2652
     27 C           7.1961   -5.3915   31.1710 C.ar    1  UNL1        0.1595
     28 N           7.5382   -6.2659   30.0012 N.ar    1  UNL1       -0.2374
     29 C           7.3504   -5.7556   28.6032 C.ar    1  UNL1        0.0970
     30 C           7.6925   -6.6299   27.4334 C.ar    1  UNL1        0.0160
     31 C           7.5046   -6.1197   26.0354 C.ar    1  UNL1       -0.0242
     32 C           7.8468   -6.9940   24.8656 C.3     1  UNL1        0.0307
     33 C           6.9747   -4.7350   25.8072 C.ar    1  UNL1       -0.0243
     34 C           6.7869   -4.2248   24.4093 C.3     1  UNL1        0.0307
     35 C           6.6326   -3.8607   26.9771 C.ar    1  UNL1        0.0142
     36 C           6.8204   -4.3710   28.3751 C.ar    1  UNL1        0.0803
     37 C           3.9790    0.8584   29.3352 C.3     1  UNL1        0.0968
     38 N           2.5038    0.9429   29.0769 N.3     1  UNL1       -0.2667
     39 C           1.6639   -0.2995   29.1114 C.3     1  UNL1        0.1047
     40 C           0.1888   -0.2149   28.8530 C.3     1  UNL1        0.1595
     41 O          -0.4465    1.1121   28.5602 O.3     1  UNL1       -0.3508
     42 C           0.3934    2.3544   28.5258 C.3     1  UNL1        0.1595
     43 C           1.8685    2.2698   28.7841 C.3     1  UNL1        0.1047
@<TRIPOS>BOND
     1    14    15    1
     2    15    16   am
     3    16    17    2
     4    16     8    1
     5     8     9   ar
     6     9    10   ar
     7    10    11   ar
     8    11    12   ar
     9    12     2    1
    10     2     3   ar
    11     3     4   ar
    12     4     5   ar
    13     5     1    1
    14     1    37    1
    15    37    38    1
    16    38    39    1
    17    39    40    1
    18    40    41    1
    19    41    42    1
    20    42    43    1
    21     1    19    1
    22    19    20    1
    23    19    21   am
    24    21    22    2
    25    21    23    1
    26    23    24    1
    27    24    25   ar
    28    25    26    2
    29    25    27   ar
    30    27    28   ar
    31    28    29   ar
    32    29    30   ar
    33    30    31   ar
    34    31    32    1
    35    31    33   ar
    36    33    34    1
    37    33    35   ar
    38    35    36   ar
    39     5     6   ar
    40     6     7   ar
    41    12    13   ar
    42    13     8   ar
    43     7     2   ar
    44    43    38    1
    45    36    24   ar
    46    36    29   ar
    47    15    18    1
@<TRIPOS>MOLECULE
*****
 43 47 0 0 0
SMALL
GASTEIGER

@<TRIPOS>ATOM
      1 C           4.2591   -0.7250   26.9485 C.3     1  UNL1        0.1139
      2 C           3.0293   -0.2606   22.6448 C.ar    1  UNL1       -0.0000
      3 C           2.6444    0.7826   23.6516 C.ar    1  UNL1       -0.0003
      4 C           3.0543    0.6278   25.0861 C.ar    1  UNL1       -0.0026
      5 C           3.8491   -0.5702   25.5139 C.ar    1  UNL1       -0.0029
      6 C           4.2341   -1.6134   24.5072 C.ar    1  UNL1       -0.0026
      7 C           3.8241   -1.4586   23.0726 C.ar    1  UNL1       -0.0003
      8 C           3.2411   -0.0211   18.6891 C.ar    1  UNL1        0.0534
      9 C           1.7994    0.2039   18.3411 C.ar    1  UNL1        0.0045
     10 C           0.7677    0.2739   19.4277 C.ar    1  UNL1        0.0001
     11 C           1.1777    0.1191   20.8623 C.ar    1  UNL1        0.0000
     12 C           2.6193   -0.1058   21.2102 C.ar    1  UNL1        0.0001
     13 C           3.6510   -0.1759   20.1236 C.ar    1  UNL1        0.0045
     14 C           6.5947    0.5908   16.6570 C.3     1  UNL1        0.1109
     15 N           5.5630    0.6609   17.7436 N.am    1  UNL1       -0.2992
     16 C           4.2728   -0.0911   17.6025 C.2     1  UNL1        0.2459
     17 O           4.0143   -0.9132   16.3748 O.2     1  UNL1       -0.2701
     18 H           5.7326    1.2005   18.5494 H       1  UNL1        0.1498
     19 N           5.7023   -0.5910   27.3347 N.am    1  UNL1       -0.2727
     20 C           6.3621    0.7560   27.3148 C.3     1  UNL1        0.1152
     21 C           6.4857   -1.8040   27.7410 C.2     1  UNL1        0.2491
     22 O           7.9289   -1.6699   28.1273 O.2     1  UNL1       -0.2727
     23 C           5.8259   -3.1509   27.7609 C.3     1  UNL1        0.1943
     24 N           6.6542   -4.3893   27.9358 N.ar    1  UNL1       -0.2839
     25 C           6.9276   -4.9206   29.3116 C.ar    1  UNL1        0.2806
     26 O           6.3728   -4.2137   30.5126 O.2     1  UNL1       -0.2652
     27 C           7.7558   -6.1589   29.4863 C.ar    1  UNL1        0.1595
     28 N           8.3106   -6.8659   28.2853 N.ar    1  UNL1       -0.2374
     29 C           8.0371   -6.3345   26.9095 C.ar    1  UNL1        0.0970
     30 C           8.5919   -7.0415   25.7085 C.ar    1  UNL1        0.0160
     31 C           8.3185   -6.5101   24.3327 C.ar    1  UNL1       -0.0242
     32 C           8.8732   -7.2171   23.1317 C.3     1  UNL1        0.0307
     33 C           7.4902   -5.2718   24.1579 C.ar    1  UNL1       -0.0243
     34 C           7.2168   -4.7404   22.7821 C.3     1  UNL1        0.0307
     35 C           6.9354   -4.5648   25.3589 C.ar    1  UNL1        0.0142
     36 C           7.2089   -5.0962   26.7347 C.ar    1  UNL1        0.0803
     37 C           3.2258   -1.0138   27.9968 C.3     1  UNL1        0.0968
     38 N           2.3683    0.0953   28.5303 N.3     1  UNL1       -0.2667
     39 C           0.9184   -0.1527   28.8243 C.3     1  UNL1        0.1047
     40 C           0.0609    0.9563   29.3578 C.3     1  UNL1        0.1595
     41 O           0.6534    2.3135   29.5974 O.3     1  UNL1       -0.3508
     42 C           2.1032    2.5614   29.3034 C.3     1  UNL1        0.1595
     43 C           2.9607    1.4523   28.7699 C.3     1  UNL1        0.1047
@<TRIPOS>BOND
     1    14    15    1
     2    15    16   am
     3    16    17    2
     4    16     8    1
     5     8     9   ar
     6     9    10   ar
     7    10    11   ar
     8    11    12   ar
     9    12     2    1
    10     2     3   ar
    11     3     4   ar
    12     4     5   ar
    13     5     1    1
    14     1    37    1
    15    37    38    1
    16    38    39    1
    17    39    40    1
    18    40    41    1
    19    41    42    1
    20    42    43    1
    21     1    19    1
    22    19    20    1
    23    19    21   am
    24    21    22    2
    25    21    23    1
    26    23    24    1
    27    24    25   ar
    28    25    26    2
    29    25    27   ar
    30    27    28   ar
    31    28    29   ar
    32    29    30   ar
    33    30    31   ar
    34    31    32    1
    35    31    33   ar
    36    33    34    1
    37    33    35   ar
    38    35    36   ar
    39     5     6   ar
    40     6     7   ar
    41    12    13   ar
    42    13     8   ar
    43     7     2   ar
    44    43    38    1
    45    36    24   ar
    46    36    29   ar
    47    15    18    1
@<TRIPOS>MOLECULE
*****
 43 47 0 0 0
SMALL
GASTEIGER

@<TRIPOS>ATOM
      1 C           4.9168    0.4232   28.6187 C.3     1  UNL1        0.1139
      2 C           3.7748   -0.5008   24.3652 C.ar    1  UNL1       -0.0000
      3 C           4.0343    0.9169   24.7811 C.ar    1  UNL1       -0.0003
      4 C           4.4150    1.2248   26.1989 C.ar    1  UNL1       -0.0026
      5 C           4.5362    0.1152   27.2009 C.ar    1  UNL1       -0.0029
      6 C           4.2767   -1.3025   26.7851 C.ar    1  UNL1       -0.0026
      7 C           3.8960   -1.6105   25.3672 C.ar    1  UNL1       -0.0003
      8 C           2.0148   -0.2539   20.8168 C.ar    1  UNL1        0.0534
      9 C           2.6328   -1.4248   20.1117 C.ar    1  UNL1        0.0045
     10 C           3.6315   -2.2877   20.8245 C.ar    1  UNL1        0.0001
     11 C           4.0121   -1.9797   22.2424 C.ar    1  UNL1        0.0000
     12 C           3.3941   -0.8088   22.9474 C.ar    1  UNL1        0.0001
     13 C           2.3955    0.0541   22.2346 C.ar    1  UNL1        0.0045
     14 C           0.4552    2.3361   18.2459 C.3     1  UNL1        0.1109
     15 N           1.4538    1.4732   18.9587 N.am    1  UNL1       -0.2992
     16 C           1.0161    0.6090   20.1040 C.2     1  UNL1        0.2459
     17 O          -0.4201    0.6077   20.5365 O.2     1  UNL1       -0.2701
     18 H           2.3965    1.4740   18.6749 H       1  UNL1        0.1498
     19 N           6.3493    0.3167   29.0507 N.am    1  UNL1       -0.2727
     20 C           7.2556    1.5070   28.9431 C.3     1  UNL1        0.1152
     21 C           6.8755   -0.9803   29.5903 C.2     1  UNL1        0.2491
     22 O           8.3080   -1.0868   30.0223 O.2     1  UNL1       -0.2727
     23 C           5.9692   -2.1706   29.6979 C.3     1  UNL1        0.1943
     24 N           6.5508   -3.5444   29.8547 N.ar    1  UNL1       -0.2839
     25 C           6.8255   -4.0907   31.2244 C.ar    1  UNL1        0.2806
     26 O           6.5187   -3.2633   32.4373 O.2     1  UNL1       -0.2652
     27 C           7.4071   -5.4645   31.3811 C.ar    1  UNL1        0.1595
     28 N           7.7140   -6.2919   30.1681 N.ar    1  UNL1       -0.2374
     29 C           7.4393   -5.7455   28.7985 C.ar    1  UNL1        0.0970
     30 C           7.7461   -6.5730   27.5855 C.ar    1  UNL1        0.0160
     31 C           7.4714   -6.0266   26.2159 C.ar    1  UNL1       -0.0242
     32 C           7.7782   -6.8540   25.0029 C.3     1  UNL1        0.0307
     33 C           6.8897   -4.6528   26.0591 C.ar    1  UNL1       -0.0243
     34 C           6.6150   -4.1065   24.6894 C.3     1  UNL1        0.0307
     35 C           6.5829   -3.8254   27.2720 C.ar    1  UNL1        0.0142
     36 C           6.8577   -4.3718   28.6418 C.ar    1  UNL1        0.0803
     37 C           3.8650    0.8377   29.6045 C.3     1  UNL1        0.0968
     38 N           2.4307    0.9320   29.1757 N.3     1  UNL1       -0.2667
     39 C           1.5439   -0.2754   29.2525 C.3     1  UNL1        0.1047
     40 C           0.1096   -0.1811   28.8237 C.3     1  UNL1        0.1595
     41 O          -0.4379    1.1207   28.3181 O.3     1  UNL1       -0.3508
     42 C           0.4488    2.3281   28.2413 C.3     1  UNL1        0.1595
     43 C           1.8831    2.2337   28.6701 C.3     1  UNL1        0.1047
@<TRIPOS>BOND
     1    14    15    1
     2    15    16   am
     3    16    17    2
     4    16     8    1
     5     8     9   ar
     6     9    10   ar
     7    10    11   ar
     8    11    12   ar
     9    12     2    1
    10     2     3   ar
    11     3     4   ar
    12     4     5   ar
    13     5     1    1
    14     1    37    1
    15    37    38    1
    16    38    39    1
    17    39    40    1
    18    40    41    1
    19    41    42    1
    20    42    43    1
    21     1    19    1
    22    19    20    1
    23    19    21   am
    24    21    22    2
    25    21    23    1
    26    23    24    1
    27    24    25   ar
    28    25    26    2
    29    25    27   ar
    30    27    28   ar
    31    28    29   ar
    32    29    30   ar
    33    30    31   ar
    34    31    32    1
    35    31    33   ar
    36    33    34    1
    37    33    35   ar
    38    35    36   ar
    39     5     6   ar
    40     6     7   ar
    41    12    13   ar
    42    13     8   ar
    43     7     2   ar
    44    43    38    1
    45    36    24   ar
    46    36    29   ar
    47    15    18    1
@<TRIPOS>MOLECULE
*****
 43 47 0 0 0
SMALL
GASTEIGER

@<TRIPOS>ATOM
      1 C           4.7000   -0.4833   28.5578 C.3     1  UNL1        0.1139
      2 C           3.3468   -0.5895   24.2674 C.ar    1  UNL1       -0.0000
      3 C           2.6429    0.2942   25.2542 C.ar    1  UNL1       -0.0003
      4 C           3.0940    0.3296   26.6844 C.ar    1  UNL1       -0.0026
      5 C           4.2489   -0.5187   27.1277 C.ar    1  UNL1       -0.0029
      6 C           4.9528   -1.4023   26.1410 C.ar    1  UNL1       -0.0026
      7 C           4.5018   -1.4377   24.7108 C.ar    1  UNL1       -0.0003
      8 C           3.0792   -1.6194   20.4442 C.ar    1  UNL1        0.0534
      9 C           1.9937   -0.6955   19.9770 C.ar    1  UNL1        0.0045
     10 C           1.3592    0.2637   20.9400 C.ar    1  UNL1        0.0001
     11 C           1.8103    0.2990   22.3702 C.ar    1  UNL1        0.0000
     12 C           2.8958   -0.6248   22.8373 C.ar    1  UNL1        0.0001
     13 C           3.5302   -1.5840   21.8743 C.ar    1  UNL1        0.0045
     14 C           4.5612   -4.9685   18.9154 C.3     1  UNL1        0.1109
     15 N           3.9268   -4.0093   19.8784 N.am    1  UNL1       -0.2992
     16 C           3.7136   -2.5786   19.4811 C.2     1  UNL1        0.2459
     17 O           4.1349   -2.1072   18.1209 O.2     1  UNL1       -0.2701
     18 H           3.6503   -4.3187   20.7712 H       1  UNL1        0.1498
     19 N           6.1644   -0.4687   28.8823 N.am    1  UNL1       -0.2727
     20 C           6.9080    0.8330   28.9346 C.3     1  UNL1        0.1152
     21 C           6.8852   -1.7557   29.1544 C.2     1  UNL1        0.2491
     22 O           8.3496   -1.7411   29.4788 O.2     1  UNL1       -0.2727
     23 C           6.1416   -3.0573   29.1021 C.3     1  UNL1        0.1943
     24 N           6.8946   -4.3538   29.1498 N.ar    1  UNL1       -0.2839
     25 C           7.2788   -4.9498   30.4716 C.ar    1  UNL1        0.2806
     26 O           6.9100   -4.2494   31.7457 O.2     1  UNL1       -0.2652
     27 C           8.0318   -6.2462   30.5192 C.ar    1  UNL1        0.1595
     28 N           8.4006   -6.9466   29.2451 N.ar    1  UNL1       -0.2374
     29 C           8.0164   -6.3506   27.9233 C.ar    1  UNL1        0.0970
     30 C           8.3852   -7.0510   26.6491 C.ar    1  UNL1        0.0160
     31 C           8.0011   -6.4550   25.3274 C.ar    1  UNL1       -0.0242
     32 C           8.3699   -7.1554   24.0532 C.3     1  UNL1        0.0307
     33 C           7.2480   -5.1585   25.2797 C.ar    1  UNL1       -0.0243
     34 C           6.8638   -4.5625   23.9579 C.3     1  UNL1        0.0307
     35 C           6.8792   -4.4581   26.5538 C.ar    1  UNL1        0.0142
     36 C           7.2634   -5.0542   27.8756 C.ar    1  UNL1        0.0803
     37 C           3.6866   -0.4626   29.6636 C.3     1  UNL1        0.0968
     38 N           4.1341   -0.3235   31.0885 N.3     1  UNL1       -0.2667
     39 C           4.3028   -1.5439   31.9442 C.3     1  UNL1        0.1047
     40 C           4.7503   -1.4047   33.3691 C.3     1  UNL1        0.1595
     41 O           5.0291   -0.0452   33.9383 O.3     1  UNL1       -0.3508
     42 C           4.8604    1.1752   33.0826 C.3     1  UNL1        0.1595
     43 C           4.4129    1.0360   31.6577 C.3     1  UNL1        0.1047
@<TRIPOS>BOND
     1    14    15    1
     2    15    16   am
     3    16    17    2
     4    16     8    1
     5     8     9   ar
     6     9    10   ar
     7    10    11   ar
     8    11    12   ar
     9    12     2    1
    10     2     3   ar
    11     3     4   ar
    12     4     5   ar
    13     5     1    1
    14     1    37    1
    15    37    38    1
    16    38    39    1
    17    39    40    1
    18    40    41    1
    19    41    42    1
    20    42    43    1
    21     1    19    1
    22    19    20    1
    23    19    21   am
    24    21    22    2
    25    21    23    1
    26    23    24    1
    27    24    25   ar
    28    25    26    2
    29    25    27   ar
    30    27    28   ar
    31    28    29   ar
    32    29    30   ar
    33    30    31   ar
    34    31    32    1
    35    31    33   ar
    36    33    34    1
    37    33    35   ar
    38    35    36   ar
    39     5     6   ar
    40     6     7   ar
    41    12    13   ar
    42    13     8   ar
    43     7     2   ar
    44    43    38    1
    45    36    24   ar
    46    36    29   ar
    47    15    18    1
@<TRIPOS>MOLECULE
*****
 43 47 0 0 0
SMALL
GASTEIGER

@<TRIPOS>ATOM
      1 C           2.8069    0.3367   27.4937 C.3     1  UNL1        0.1139
      2 C          -0.9910    2.3928   26.2295 C.ar    1  UNL1       -0.0000
      3 C          -0.9168    1.7073   27.5618 C.ar    1  UNL1       -0.0003
      4 C           0.3492    1.0220   27.9831 C.ar    1  UNL1       -0.0026
      5 C           1.5410    1.0220   27.0723 C.ar    1  UNL1       -0.0029
      6 C           1.4669    1.7074   25.7402 C.ar    1  UNL1       -0.0026
      7 C           0.2008    2.3928   25.3187 C.ar    1  UNL1       -0.0003
      8 C          -3.8920    3.8302   23.9345 C.ar    1  UNL1        0.0534
      9 C          -4.7890    4.4489   24.9655 C.ar    1  UNL1        0.0045
     10 C          -4.4198    4.3821   26.4178 C.ar    1  UNL1        0.0001
     11 C          -3.1538    3.6967   26.8392 C.ar    1  UNL1        0.0000
     12 C          -2.2569    3.0781   25.8082 C.ar    1  UNL1        0.0001
     13 C          -2.6261    3.1449   24.3558 C.ar    1  UNL1        0.0045
     14 C          -3.7075    3.3922   19.9944 C.3     1  UNL1        0.1109
     15 N          -3.3384    3.3255   21.4467 N.am    1  UNL1       -0.2992
     16 C          -4.2612    3.8969   22.4821 C.2     1  UNL1        0.2459
     17 O          -5.5530    4.5350   22.0652 O.2     1  UNL1       -0.2701
     18 H          -2.4905    2.9067   21.7204 H       1  UNL1        0.1498
     19 N           4.1136    0.7234   26.8667 N.am    1  UNL1       -0.2727
     20 C           4.8593    1.9248   27.3673 C.3     1  UNL1        0.1152
     21 C           4.6746   -0.0914   25.7391 C.2     1  UNL1        0.2491
     22 O           5.9813    0.2953   25.1121 O.2     1  UNL1       -0.2727
     23 C           3.9290   -1.2928   25.2385 C.3     1  UNL1        0.1943
     24 N           4.2233   -1.8436   23.8746 N.ar    1  UNL1       -0.2839
     25 C           5.2682   -2.9061   23.7043 C.ar    1  UNL1        0.2806
     26 O           6.0189   -3.4179   24.8979 O.2     1  UNL1       -0.2652
     27 C           5.5625   -3.4569   22.3405 C.ar    1  UNL1        0.1595
     28 N           4.8118   -2.9451   21.1470 N.ar    1  UNL1       -0.2374
     29 C           3.7669   -1.8825   21.3173 C.ar    1  UNL1        0.0970
     30 C           3.0162   -1.3707   20.1237 C.ar    1  UNL1        0.0160
     31 C           1.9712   -0.3082   20.2940 C.ar    1  UNL1       -0.0242
     32 C           1.2206    0.2037   19.1005 C.3     1  UNL1        0.0307
     33 C           1.6769    0.2426   21.6579 C.ar    1  UNL1       -0.0243
     34 C           0.6320    1.3052   21.8282 C.3     1  UNL1        0.0307
     35 C           2.4276   -0.2692   22.8514 C.ar    1  UNL1        0.0142
     36 C           3.4726   -1.3318   22.6811 C.ar    1  UNL1        0.0803
     37 C           2.7663   -0.7354   28.5421 C.3     1  UNL1        0.0968
     38 N           3.4036   -0.5010   29.8796 N.3     1  UNL1       -0.2667
     39 C           2.6114    0.1263   30.9882 C.3     1  UNL1        0.1047
     40 C           3.2487    0.3607   32.3257 C.3     1  UNL1        0.1595
     41 O           4.6782   -0.0322   32.5546 O.3     1  UNL1       -0.3508
     42 C           5.4703   -0.6594   31.4460 C.3     1  UNL1        0.1595
     43 C           4.8330   -0.8938   30.1085 C.3     1  UNL1        0.1047
@<TRIPOS>BOND
     1    14    15    1
     2    15    16   am
     3    16    17    2
     4    16     8    1
     5     8     9   ar
     6     9    10   ar
     7    10    11   ar
     8    11    12   ar
     9    12     2    1
    10     2     3   ar
    11     3     4   ar
    12     4     5   ar
    13     5     1    1
    14     1    37    1
    15    37    38    1
    16    38    39    1
    17    39    40    1
    18    40    41    1
    19    41    42    1
    20    42    43    1
    21     1    19    1
    22    19    20    1
    23    19    21   am
    24    21    22    2
    25    21    23    1
    26    23    24    1
    27    24    25   ar
    28    25    26    2
    29    25    27   ar
    30    27    28   ar
    31    28    29   ar
    32    29    30   ar
    33    30    31   ar
    34    31    32    1
    35    31    33   ar
    36    33    34    1
    37    33    35   ar
    38    35    36   ar
    39     5     6   ar
    40     6     7   ar
    41    12    13   ar
    42    13     8   ar
    43     7     2   ar
    44    43    38    1
    45    36    24   ar
    46    36    29   ar
    47    15    18    1
@<TRIPOS>MOLECULE
*****
 43 47 0 0 0
SMALL
GASTEIGER

@<TRIPOS>ATOM
      1 C           4.5420   -0.5493   28.4921 C.3     1  UNL1        0.1139
      2 C           3.5882   -0.9269   24.1105 C.ar    1  UNL1       -0.0000
      3 C           4.6346   -1.8060   24.7289 C.ar    1  UNL1       -0.0003
      4 C           4.9525   -1.6801   26.1893 C.ar    1  UNL1       -0.0026
      5 C           4.2241   -0.6751   27.0316 C.ar    1  UNL1       -0.0029
      6 C           3.1777    0.2039   26.4133 C.ar    1  UNL1       -0.0026
      7 C           2.8597    0.0781   24.9528 C.ar    1  UNL1       -0.0003
      8 C           1.9498   -0.2588   20.5583 C.ar    1  UNL1        0.0534
      9 C           2.6345   -1.3046   19.7290 C.ar    1  UNL1        0.0045
     10 C           3.6371   -2.2245   20.3604 C.ar    1  UNL1        0.0001
     11 C           3.9550   -2.0985   21.8209 C.ar    1  UNL1        0.0000
     12 C           3.2703   -1.0528   22.6501 C.ar    1  UNL1        0.0001
     13 C           2.2677   -0.1329   22.0187 C.ar    1  UNL1        0.0045
     14 C           0.3547    2.4722   18.1608 C.3     1  UNL1        0.1109
     15 N           1.3573    1.5523   18.7921 N.am    1  UNL1       -0.2992
     16 C           0.9472    0.6611   19.9269 C.2     1  UNL1        0.2459
     17 O          -0.4655    0.6899   20.4303 O.2     1  UNL1       -0.2701
     18 H           2.2845    1.5334   18.4617 H       1  UNL1        0.1498
     19 N           5.9691   -0.4499   28.9431 N.am    1  UNL1       -0.2727
     20 C           6.6569    0.8829   28.9676 C.3     1  UNL1        0.1152
     21 C           6.7084   -1.6834   29.3698 C.2     1  UNL1        0.2491
     22 O           8.1355   -1.5840   29.8209 O.2     1  UNL1       -0.2727
     23 C           6.0206   -3.0161   29.3453 C.3     1  UNL1        0.1943
     24 N           6.8186   -4.2752   29.5136 N.ar    1  UNL1       -0.2839
     25 C           7.1896   -4.7500   30.8872 C.ar    1  UNL1        0.2806
     26 O           6.7627   -3.9658   32.0926 O.2     1  UNL1       -0.2652
     27 C           7.9875   -6.0089   31.0555 C.ar    1  UNL1        0.1595
     28 N           8.4144   -6.7930   29.8501 N.ar    1  UNL1       -0.2374
     29 C           8.0434   -6.3182   28.4765 C.ar    1  UNL1        0.0970
     30 C           8.4703   -7.1024   27.2711 C.ar    1  UNL1        0.0160
     31 C           8.0993   -6.6275   25.8975 C.ar    1  UNL1       -0.0242
     32 C           8.5262   -7.4117   24.6922 C.3     1  UNL1        0.0307
     33 C           7.3013   -5.3685   25.7292 C.ar    1  UNL1       -0.0243
     34 C           6.9303   -4.8937   24.3556 C.3     1  UNL1        0.0307
     35 C           6.8744   -4.5844   26.9346 C.ar    1  UNL1        0.0142
     36 C           7.2455   -5.0593   28.3083 C.ar    1  UNL1        0.0803
     37 C           3.4327   -0.5227   29.5015 C.3     1  UNL1        0.0968
     38 N           3.7312   -0.1986   30.9354 N.3     1  UNL1       -0.2667
     39 C           3.9397   -1.3049   31.9267 C.3     1  UNL1        0.1047
     40 C           4.2381   -0.9807   33.3605 C.3     1  UNL1        0.1595
     41 O           4.3280    0.4498   33.8030 O.3     1  UNL1       -0.3508
     42 C           4.1195    1.5560   32.8117 C.3     1  UNL1        0.1595
     43 C           3.8211    1.2318   31.3779 C.3     1  UNL1        0.1047
@<TRIPOS>BOND
     1    14    15    1
     2    15    16   am
     3    16    17    2
     4    16     8    1
     5     8     9   ar
     6     9    10   ar
     7    10    11   ar
     8    11    12   ar
     9    12     2    1
    10     2     3   ar
    11     3     4   ar
    12     4     5   ar
    13     5     1    1
    14     1    37    1
    15    37    38    1
    16    38    39    1
    17    39    40    1
    18    40    41    1
    19    41    42    1
    20    42    43    1
    21     1    19    1
    22    19    20    1
    23    19    21   am
    24    21    22    2
    25    21    23    1
    26    23    24    1
    27    24    25   ar
    28    25    26    2
    29    25    27   ar
    30    27    28   ar
    31    28    29   ar
    32    29    30   ar
    33    30    31   ar
    34    31    32    1
    35    31    33   ar
    36    33    34    1
    37    33    35   ar
    38    35    36   ar
    39     5     6   ar
    40     6     7   ar
    41    12    13   ar
    42    13     8   ar
    43     7     2   ar
    44    43    38    1
    45    36    24   ar
    46    36    29   ar
    47    15    18    1
@<TRIPOS>MOLECULE
*****
 43 47 0 0 0
SMALL
GASTEIGER

@<TRIPOS>ATOM
      1 C           0.3292    3.8793   26.2271 C.3     1  UNL1        0.1139
      2 C           2.1756    0.6639   23.6772 C.ar    1  UNL1       -0.0000
      3 C           3.0424    1.5088   24.5631 C.ar    1  UNL1       -0.0003
      4 C           2.4270    2.5806   25.4131 C.ar    1  UNL1       -0.0026
      5 C           0.9447    2.8075   25.3771 C.ar    1  UNL1       -0.0029
      6 C           0.0778    1.9627   24.4912 C.ar    1  UNL1       -0.0026
      7 C           0.6933    0.8909   23.6412 C.ar    1  UNL1       -0.0003
      8 C           4.3947   -2.4364   22.5757 C.ar    1  UNL1        0.0534
      9 C           4.0220   -2.5514   21.1272 C.ar    1  UNL1        0.0045
     10 C           3.0339   -1.5946   20.5288 C.ar    1  UNL1        0.0001
     11 C           2.4184   -0.5228   21.3788 C.ar    1  UNL1        0.0000
     12 C           2.7911   -0.4078   22.8272 C.ar    1  UNL1        0.0001
     13 C           3.7792   -1.3646   23.4256 C.ar    1  UNL1        0.0045
     14 C           6.6639   -4.3036   25.2430 C.3     1  UNL1        0.1109
     15 N           5.6757   -3.3468   24.6446 N.am    1  UNL1       -0.2992
     16 C           5.3828   -3.3932   23.1741 C.2     1  UNL1        0.2459
     17 O           6.0781   -4.3963   22.3022 O.2     1  UNL1       -0.2701
     18 H           5.2194   -2.6884   25.2168 H       1  UNL1        0.1498
     19 N          -0.0624    5.1908   25.6134 N.am    1  UNL1       -0.2727
     20 C           0.9650    6.2675   25.4257 C.3     1  UNL1        0.1152
     21 C          -1.4813    5.4256   25.1873 C.2     1  UNL1        0.2491
     22 O          -1.8729    6.7371   24.5736 O.2     1  UNL1       -0.2727
     23 C          -2.5087    4.3489   25.3750 C.3     1  UNL1        0.1943
     24 N          -3.9586    4.6445   25.1289 N.ar    1  UNL1       -0.2839
     25 C          -4.8210    5.1508   26.2469 C.ar    1  UNL1        0.2806
     26 O          -4.2336    5.3614   27.6109 O.2     1  UNL1       -0.2652
     27 C          -6.2708    5.4464   26.0009 C.ar    1  UNL1        0.1595
     28 N          -6.8582    5.2357   24.6368 N.ar    1  UNL1       -0.2374
     29 C          -5.9958    4.7295   23.5188 C.ar    1  UNL1        0.0970
     30 C          -6.5832    4.5189   22.1548 C.ar    1  UNL1        0.0160
     31 C          -5.7208    4.0126   21.0368 C.ar    1  UNL1       -0.0242
     32 C          -6.3082    3.8020   19.6728 C.3     1  UNL1        0.0307
     33 C          -4.2709    3.7170   21.2829 C.ar    1  UNL1       -0.0243
     34 C          -3.4085    3.2107   20.1649 C.3     1  UNL1        0.0307
     35 C          -3.6835    3.9276   22.6469 C.ar    1  UNL1        0.0142
     36 C          -4.5460    4.4339   23.7649 C.ar    1  UNL1        0.0803
     37 C           0.1053    3.6396   27.6908 C.3     1  UNL1        0.0968
     38 N           0.1657    2.2452   28.2403 N.3     1  UNL1       -0.2667
     39 C          -1.0004    1.3183   28.0638 C.3     1  UNL1        0.1047
     40 C          -0.9400   -0.0762   28.6133 C.3     1  UNL1        0.1595
     41 O           0.2866   -0.5437   29.3392 O.3     1  UNL1       -0.3508
     42 C           1.4526    0.3832   29.5157 C.3     1  UNL1        0.1595
     43 C           1.3922    1.7776   28.9662 C.3     1  UNL1        0.1047
@<TRIPOS>BOND
     1    14    15    1
     2    15    16   am
     3    16    17    2
     4    16     8    1
     5     8     9   ar
     6     9    10   ar
     7    10    11   ar
     8    11    12   ar
     9    12     2    1
    10     2     3   ar
    11     3     4   ar
    12     4     5   ar
    13     5     1    1
    14     1    37    1
    15    37    38    1
    16    38    39    1
    17    39    40    1
    18    40    41    1
    19    41    42    1
    20    42    43    1
    21     1    19    1
    22    19    20    1
    23    19    21   am
    24    21    22    2
    25    21    23    1
    26    23    24    1
    27    24    25   ar
    28    25    26    2
    29    25    27   ar
    30    27    28   ar
    31    28    29   ar
    32    29    30   ar
    33    30    31   ar
    34    31    32    1
    35    31    33   ar
    36    33    34    1
    37    33    35   ar
    38    35    36   ar
    39     5     6   ar
    40     6     7   ar
    41    12    13   ar
    42    13     8   ar
    43     7     2   ar
    44    43    38    1
    45    36    24   ar
    46    36    29   ar
    47    15    18    1
