@<TRIPOS>MOLECULE
*****
 33 35 0 0 0
SMALL
GASTEIGER

@<TRIPOS>ATOM
      1 C          -8.8273  -15.8946   22.6669 C.ar    1  UNL1        0.2187
      2 N          -9.5022  -15.6559   23.9850 N.ar    1  UNL1       -0.2057
      3 C          -8.6797  -15.4043   25.2140 C.ar    1  UNL1        0.1799
      4 C          -7.1825  -15.3914   25.1248 C.ar    1  UNL1        0.3398
      5 C          -6.5076  -15.6300   23.8066 C.ar    1  UNL1        0.2031
      6 N          -7.3300  -15.8816   22.5777 N.ar    1  UNL1       -0.1927
      7 N          -6.3601  -15.1398   26.3538 N.pl3   1  UNL1        0.0855
      8 O          -6.8096  -15.6775   27.6800 O.2     1  UNL1        0.0416
      9 O          -5.0883  -14.3505   26.2565 O.co2   1  UNL1       -0.5759
     10 N          -9.6497  -16.1462   21.4379 N.pl3   1  UNL1       -0.2990
     11 H          -9.7627  -15.4345   20.7670 H       1  UNL1        0.1500
     12 C         -10.2999  -17.4820   21.2311 C.3     1  UNL1        0.1170
     13 C         -11.3806  -18.6792   23.2680 C.ar    1  UNL1        0.0229
     14 C         -11.3175  -19.7191   24.3471 C.ar    1  UNL1        0.0059
     15 C         -10.1108  -20.6017   24.4685 C.ar    1  UNL1        0.0005
     16 C          -8.9671  -20.4445   23.5108 C.ar    1  UNL1       -0.0002
     17 C          -9.0302  -19.4046   22.4317 C.ar    1  UNL1       -0.0021
     18 C         -10.2369  -18.5219   22.3103 C.ar    1  UNL1        0.0031
     19 C         -13.7736  -18.0213   24.0365 C.3     1  UNL1        0.0741
     20 S         -12.5873  -17.7965   23.1465 S.3     1  UNL1       -0.1130
     21 N          -5.0103  -15.6171   23.7174 N.pl3   1  UNL1       -0.3131
     22 H          -4.5289  -14.7614   23.6446 H       1  UNL1        0.1484
     23 C          -4.2465  -16.9078   23.7392 C.3     1  UNL1        0.0883
     24 C          -3.3132  -17.2461   22.6146 C.3     1  UNL1        0.0196
     25 C          -2.3999  -16.1954   22.0562 C.3     1  UNL1        0.0017
     26 C          -1.4666  -16.5336   20.9317 C.3     1  UNL1        0.0014
     27 C          -1.4466  -17.9226   20.3656 C.3     1  UNL1        0.0155
     28 C          -2.3599  -18.9733   20.9241 C.3     1  UNL1        0.0014
     29 C          -3.2932  -18.6350   22.0486 C.3     1  UNL1        0.0017
     30 C          -0.5133  -18.2608   19.2411 C.3     1  UNL1        0.0651
     31 N          -0.8549  -17.8600   17.8366 N.3     1  UNL1       -0.3211
     32 H          -1.6836  -18.3694   17.5297 H       1  UNL1        0.1189
     33 H          -0.0726  -18.0805   17.2203 H       1  UNL1        0.1189
@<TRIPOS>UNITY_ATOM_ATTR
7 1
charge 1
9 1
charge -1
@<TRIPOS>BOND
     1    19    20    1
     2    20    13    1
     3    13    14   ar
     4    14    15   ar
     5    15    16   ar
     6    16    17   ar
     7    17    18   ar
     8    18    12    1
     9    12    10    1
    10    10     1    1
    11     1     2   ar
    12     2     3   ar
    13     3     4   ar
    14     4     7    1
    15     7     8    2
    16     7     9    1
    17     4     5   ar
    18     5    21    1
    19    21    23    1
    20    23    24    1
    21    24    25    1
    22    25    26    1
    23    26    27    1
    24    27    30    1
    25    30    31    1
    26    27    28    1
    27    28    29    1
    28     5     6   ar
    29    18    13   ar
    30     6     1   ar
    31    29    24    1
    32    10    11    1
    33    21    22    1
    34    31    32    1
    35    31    33    1
@<TRIPOS>MOLECULE
*****
 33 35 0 0 0
SMALL
GASTEIGER

@<TRIPOS>ATOM
      1 C          -8.7290  -16.1431   22.5740 C.ar    1  UNL1        0.2187
      2 N          -9.4529  -15.8294   23.8498 N.ar    1  UNL1       -0.2057
      3 C          -8.6770  -15.5260   25.0972 C.ar    1  UNL1        0.1799
      4 C          -7.1774  -15.5364   25.0689 C.ar    1  UNL1        0.3398
      5 C          -6.4535  -15.8501   23.7931 C.ar    1  UNL1        0.2031
      6 N          -7.2292  -16.1535   22.5457 N.ar    1  UNL1       -0.1927
      7 N          -6.4016  -15.2330   26.3163 N.pl3   1  UNL1        0.0855
      8 O          -5.1599  -14.3946   26.2421 O.2     1  UNL1        0.0416
      9 O          -6.8675  -15.7679   27.6380 O.co2   1  UNL1       -0.5759
     10 N          -9.5048  -16.4465   21.3266 N.pl3   1  UNL1       -0.2990
     11 H          -9.4412  -15.8459   20.5491 H       1  UNL1        0.1500
     12 C         -10.3774  -17.6649   21.2638 C.3     1  UNL1        0.1170
     13 C         -10.9196  -18.9345   23.4647 C.ar    1  UNL1        0.0229
     14 C         -11.8639  -19.2395   24.5895 C.ar    1  UNL1        0.0059
     15 C         -13.2102  -18.5800   24.6383 C.ar    1  UNL1        0.0005
     16 C         -13.6123  -17.6154   23.5623 C.ar    1  UNL1       -0.0002
     17 C         -12.6680  -17.3104   22.4374 C.ar    1  UNL1       -0.0021
     18 C         -11.3217  -17.9700   22.3887 C.ar    1  UNL1        0.0031
     19 C          -9.3281  -20.8564   24.1882 C.3     1  UNL1        0.0741
     20 S          -9.5733  -19.5941   23.4159 S.3     1  UNL1       -0.1130
     21 N          -4.9538  -15.8604   23.7648 N.pl3   1  UNL1       -0.3131
     22 H          -4.4547  -15.0133   23.8152 H       1  UNL1        0.1484
     23 C          -4.2146  -17.1614   23.6597 C.3     1  UNL1        0.0883
     24 C          -3.3008  -17.4130   22.4971 C.3     1  UNL1        0.0196
     25 C          -2.3660  -16.3364   22.0312 C.3     1  UNL1        0.0017
     26 C          -1.4522  -16.5880   20.8686 C.3     1  UNL1        0.0014
     27 C          -1.4733  -17.9162   20.1718 C.3     1  UNL1        0.0155
     28 C          -2.4081  -18.9928   20.6377 C.3     1  UNL1        0.0014
     29 C          -3.3219  -18.7412   21.8003 C.3     1  UNL1        0.0017
     30 C          -0.5595  -18.1678   19.0092 C.3     1  UNL1        0.0651
     31 N          -1.0015  -17.8195   17.6188 N.3     1  UNL1       -0.3211
     32 H          -1.7853  -18.4152   17.3519 H       1  UNL1        0.1189
     33 H          -0.2280  -17.9643   16.9698 H       1  UNL1        0.1189
@<TRIPOS>UNITY_ATOM_ATTR
7 1
charge 1
9 1
charge -1
@<TRIPOS>BOND
     1    19    20    1
     2    20    13    1
     3    13    14   ar
     4    14    15   ar
     5    15    16   ar
     6    16    17   ar
     7    17    18   ar
     8    18    12    1
     9    12    10    1
    10    10     1    1
    11     1     2   ar
    12     2     3   ar
    13     3     4   ar
    14     4     7    1
    15     7     8    2
    16     7     9    1
    17     4     5   ar
    18     5    21    1
    19    21    23    1
    20    23    24    1
    21    24    25    1
    22    25    26    1
    23    26    27    1
    24    27    30    1
    25    30    31    1
    26    27    28    1
    27    28    29    1
    28     5     6   ar
    29    18    13   ar
    30     6     1   ar
    31    29    24    1
    32    10    11    1
    33    21    22    1
    34    31    32    1
    35    31    33    1
@<TRIPOS>MOLECULE
*****
 33 35 0 0 0
SMALL
GASTEIGER

@<TRIPOS>ATOM
      1 C          -4.2218  -15.9142   22.8124 C.ar    1  UNL1        0.2187
      2 N          -2.9090  -15.5464   22.1868 N.ar    1  UNL1       -0.2057
      3 C          -2.0880  -16.5942   21.4952 C.ar    1  UNL1        0.1799
      4 C          -2.5798  -18.0097   21.4294 C.ar    1  UNL1        0.3398
      5 C          -3.8925  -18.3776   22.0550 C.ar    1  UNL1        0.2031
      6 N          -4.7135  -17.3298   22.7465 N.ar    1  UNL1       -0.1927
      7 N          -1.7588  -19.0574   20.7379 N.pl3   1  UNL1        0.0855
      8 O          -1.7422  -20.4633   21.2607 O.2     1  UNL1        0.0416
      9 O          -0.9544  -18.6994   19.5235 O.co2   1  UNL1       -0.5759
     10 N          -5.0428  -14.8665   23.5039 N.pl3   1  UNL1       -0.2990
     11 H          -4.6084  -14.0610   23.8669 H       1  UNL1        0.1500
     12 C          -6.5255  -15.0460   23.6423 C.3     1  UNL1        0.1170
     13 C          -8.4620  -16.1776   24.9537 C.ar    1  UNL1        0.0229
     14 C          -9.0399  -16.6734   26.2460 C.ar    1  UNL1        0.0059
     15 C          -8.2594  -16.5335   27.5193 C.ar    1  UNL1        0.0005
     16 C          -6.9010  -15.8977   27.5003 C.ar    1  UNL1       -0.0002
     17 C          -6.3231  -15.4019   26.2080 C.ar    1  UNL1       -0.0021
     18 C          -7.1036  -15.5419   24.9347 C.ar    1  UNL1        0.0031
     19 C         -10.6219  -16.9060   23.7071 C.3     1  UNL1        0.0741
     20 S          -9.2425  -16.3175   23.6804 S.3     1  UNL1       -0.1130
     21 N          -4.3843  -19.7931   21.9891 N.pl3   1  UNL1       -0.3131
     22 H          -4.1455  -20.4307   22.7002 H       1  UNL1        0.1484
     23 C          -5.2398  -20.2371   20.8398 C.3     1  UNL1        0.0883
     24 C          -6.7128  -19.9534   20.8477 C.3     1  UNL1        0.0196
     25 C          -7.4449  -19.7527   19.5541 C.3     1  UNL1        0.0017
     26 C          -8.9178  -19.4690   19.5621 C.3     1  UNL1        0.0014
     27 C          -9.6585  -19.3859   20.8638 C.3     1  UNL1        0.0155
     28 C          -8.9264  -19.5866   22.1575 C.3     1  UNL1        0.0014
     29 C          -7.4535  -19.8703   22.1494 C.3     1  UNL1        0.0017
     30 C         -11.1315  -19.1022   20.8718 C.3     1  UNL1        0.0651
     31 N         -11.6668  -17.8962   20.1584 N.3     1  UNL1       -0.3211
     32 H         -11.3277  -17.0510   20.6179 H       1  UNL1        0.1189
     33 H         -12.6864  -17.9111   20.1835 H       1  UNL1        0.1189
@<TRIPOS>UNITY_ATOM_ATTR
7 1
charge 1
9 1
charge -1
@<TRIPOS>BOND
     1    19    20    1
     2    20    13    1
     3    13    14   ar
     4    14    15   ar
     5    15    16   ar
     6    16    17   ar
     7    17    18   ar
     8    18    12    1
     9    12    10    1
    10    10     1    1
    11     1     2   ar
    12     2     3   ar
    13     3     4   ar
    14     4     7    1
    15     7     8    2
    16     7     9    1
    17     4     5   ar
    18     5    21    1
    19    21    23    1
    20    23    24    1
    21    24    25    1
    22    25    26    1
    23    26    27    1
    24    27    30    1
    25    30    31    1
    26    27    28    1
    27    28    29    1
    28     5     6   ar
    29    18    13   ar
    30     6     1   ar
    31    29    24    1
    32    10    11    1
    33    21    22    1
    34    31    32    1
    35    31    33    1
@<TRIPOS>MOLECULE
*****
 33 35 0 0 0
SMALL
GASTEIGER

@<TRIPOS>ATOM
      1 C          -7.8964  -16.8013   22.5893 C.ar    1  UNL1        0.2187
      2 N          -8.7610  -15.9963   23.5136 N.ar    1  UNL1       -0.2057
      3 C          -8.1669  -15.3683   24.7395 C.ar    1  UNL1        0.1799
      4 C          -6.7083  -15.5455   25.0410 C.ar    1  UNL1        0.3398
      5 C          -5.8437  -16.3505   24.1167 C.ar    1  UNL1        0.2031
      6 N          -6.4377  -16.9784   22.8909 N.ar    1  UNL1       -0.1927
      7 N          -6.1142  -14.9175   26.2669 N.pl3   1  UNL1        0.0855
      8 O          -6.7883  -15.0840   27.5966 O.2     1  UNL1        0.0416
      9 O          -4.8461  -14.1231   26.1632 O.co2   1  UNL1       -0.5759
     10 N          -8.4904  -17.4293   21.3634 N.pl3   1  UNL1       -0.2990
     11 H          -8.2505  -17.0898   20.4709 H       1  UNL1        0.1500
     12 C          -9.4501  -18.5743   21.4972 C.3     1  UNL1        0.1170
     13 C         -11.8986  -17.7093   21.4172 C.ar    1  UNL1        0.0229
     14 C         -13.2255  -17.5016   22.0852 C.ar    1  UNL1        0.0059
     15 C         -13.4307  -17.9514   23.5014 C.ar    1  UNL1        0.0005
     16 C         -12.3090  -18.6088   24.2496 C.ar    1  UNL1       -0.0002
     17 C         -10.9822  -18.8164   23.5815 C.ar    1  UNL1       -0.0021
     18 C         -10.7770  -18.3667   22.1653 C.ar    1  UNL1        0.0031
     19 C         -11.4761  -15.8063   19.6996 C.3     1  UNL1        0.0741
     20 S         -11.6934  -17.2595   20.0010 S.3     1  UNL1       -0.1130
     21 N          -4.3850  -16.5276   24.4183 N.pl3   1  UNL1       -0.3131
     22 H          -3.8849  -15.8095   24.8692 H       1  UNL1        0.1484
     23 C          -3.6885  -17.7989   24.0328 C.3     1  UNL1        0.0883
     24 C          -2.9315  -17.8771   22.7401 C.3     1  UNL1        0.0196
     25 C          -2.7561  -19.1986   22.0524 C.3     1  UNL1        0.0017
     26 C          -1.9991  -19.2767   20.7598 C.3     1  UNL1        0.0014
     27 C          -1.4176  -18.0334   20.1549 C.3     1  UNL1        0.0155
     28 C          -1.5930  -16.7119   20.8426 C.3     1  UNL1        0.0014
     29 C          -2.3499  -16.6338   22.1352 C.3     1  UNL1        0.0017
     30 C          -0.6606  -18.1115   18.8622 C.3     1  UNL1        0.0651
     31 N          -1.2996  -17.6411   17.5893 N.3     1  UNL1       -0.3211
     32 H          -2.0891  -18.2455   17.3616 H       1  UNL1        0.1189
     33 H          -0.6161  -17.6752   16.8329 H       1  UNL1        0.1189
@<TRIPOS>UNITY_ATOM_ATTR
7 1
charge 1
9 1
charge -1
@<TRIPOS>BOND
     1    19    20    1
     2    20    13    1
     3    13    14   ar
     4    14    15   ar
     5    15    16   ar
     6    16    17   ar
     7    17    18   ar
     8    18    12    1
     9    12    10    1
    10    10     1    1
    11     1     2   ar
    12     2     3   ar
    13     3     4   ar
    14     4     7    1
    15     7     8    2
    16     7     9    1
    17     4     5   ar
    18     5    21    1
    19    21    23    1
    20    23    24    1
    21    24    25    1
    22    25    26    1
    23    26    27    1
    24    27    30    1
    25    30    31    1
    26    27    28    1
    27    28    29    1
    28     5     6   ar
    29    18    13   ar
    30     6     1   ar
    31    29    24    1
    32    10    11    1
    33    21    22    1
    34    31    32    1
    35    31    33    1
@<TRIPOS>MOLECULE
*****
 33 35 0 0 0
SMALL
GASTEIGER

@<TRIPOS>ATOM
      1 C          -5.7042  -19.6242   21.0142 C.ar    1  UNL1        0.2187
      2 N          -4.8089  -20.1229   19.9188 N.ar    1  UNL1       -0.2057
      3 C          -3.4260  -19.5621   19.7667 C.ar    1  UNL1        0.1799
      4 C          -2.9383  -18.5027   20.7100 C.ar    1  UNL1        0.3398
      5 C          -3.8336  -18.0040   21.8054 C.ar    1  UNL1        0.2031
      6 N          -5.2165  -18.5647   21.9575 N.ar    1  UNL1       -0.1927
      7 N          -1.5555  -17.9419   20.5579 N.pl3   1  UNL1        0.0855
      8 O          -1.2839  -16.5095   20.9109 O.2     1  UNL1        0.0416
      9 O          -0.4441  -18.8136   20.0528 O.co2   1  UNL1       -0.5759
     10 N          -7.0870  -20.1849   21.1662 N.pl3   1  UNL1       -0.2990
     11 H          -7.2153  -21.1543   21.2809 H       1  UNL1        0.1500
     12 C          -8.2745  -19.2688   21.1436 C.3     1  UNL1        0.1170
     13 C         -10.2620  -18.1513   22.3893 C.ar    1  UNL1        0.0229
     14 C         -11.1797  -18.0838   23.5738 C.ar    1  UNL1        0.0059
     15 C         -11.0278  -19.0660   24.6972 C.ar    1  UNL1        0.0005
     16 C          -9.9582  -20.1159   24.6361 C.ar    1  UNL1       -0.0002
     17 C          -9.0405  -20.1834   23.4516 C.ar    1  UNL1       -0.0021
     18 C          -9.1924  -19.2012   22.3282 C.ar    1  UNL1        0.0031
     19 C         -11.3941  -17.4371   20.1626 C.3     1  UNL1        0.0741
     20 S         -10.4138  -17.1691   21.2658 S.3     1  UNL1       -0.1130
     21 N          -3.3460  -16.9446   22.7487 N.pl3   1  UNL1       -0.3131
     22 H          -2.4883  -17.0603   23.2179 H       1  UNL1        0.1484
     23 C          -4.1651  -15.7089   22.9770 C.3     1  UNL1        0.0883
     24 C          -5.2356  -15.7023   24.0278 C.3     1  UNL1        0.0196
     25 C          -6.6716  -15.8888   23.6368 C.3     1  UNL1        0.0017
     26 C          -7.7420  -15.8821   24.6876 C.3     1  UNL1        0.0014
     27 C          -7.3763  -15.6890   26.1295 C.3     1  UNL1        0.0155
     28 C          -5.9402  -15.5025   26.5205 C.3     1  UNL1        0.0014
     29 C          -4.8699  -15.5092   25.4697 C.3     1  UNL1        0.0017
     30 C          -8.4467  -15.6824   27.1803 C.3     1  UNL1        0.0651
     31 N          -8.7081  -14.4385   27.9768 N.3     1  UNL1       -0.3211
     32 H          -7.8965  -14.2305   28.5585 H       1  UNL1        0.1189
     33 H          -9.5249  -14.5806   28.5709 H       1  UNL1        0.1189
@<TRIPOS>UNITY_ATOM_ATTR
7 1
charge 1
9 1
charge -1
@<TRIPOS>BOND
     1    19    20    1
     2    20    13    1
     3    13    14   ar
     4    14    15   ar
     5    15    16   ar
     6    16    17   ar
     7    17    18   ar
     8    18    12    1
     9    12    10    1
    10    10     1    1
    11     1     2   ar
    12     2     3   ar
    13     3     4   ar
    14     4     7    1
    15     7     8    2
    16     7     9    1
    17     4     5   ar
    18     5    21    1
    19    21    23    1
    20    23    24    1
    21    24    25    1
    22    25    26    1
    23    26    27    1
    24    27    30    1
    25    30    31    1
    26    27    28    1
    27    28    29    1
    28     5     6   ar
    29    18    13   ar
    30     6     1   ar
    31    29    24    1
    32    10    11    1
    33    21    22    1
    34    31    32    1
    35    31    33    1
@<TRIPOS>MOLECULE
*****
 33 35 0 0 0
SMALL
GASTEIGER

@<TRIPOS>ATOM
      1 C          -4.2368  -15.9608   22.7890 C.ar    1  UNL1        0.2187
      2 N          -2.8913  -15.5792   22.2465 N.ar    1  UNL1       -0.2057
      3 C          -2.0654  -16.5913   21.5092 C.ar    1  UNL1        0.1799
      4 C          -2.5848  -17.9849   21.3144 C.ar    1  UNL1        0.3398
      5 C          -3.9303  -18.3665   21.8568 C.ar    1  UNL1        0.2031
      6 N          -4.7562  -17.3545   22.5941 N.ar    1  UNL1       -0.1927
      7 N          -1.7589  -18.9969   20.5771 N.pl3   1  UNL1        0.0855
      8 O          -1.6531  -20.4003   21.0961 O.2     1  UNL1        0.0416
      9 O          -1.0387  -18.6056   19.3209 O.co2   1  UNL1       -0.5759
     10 N          -5.0627  -14.9488   23.5262 N.pl3   1  UNL1       -0.2990
     11 H          -4.9133  -13.9875   23.3754 H       1  UNL1        0.1500
     12 C          -6.1163  -15.4015   24.4932 C.3     1  UNL1        0.1170
     13 C          -8.5227  -16.2645   24.9561 C.ar    1  UNL1        0.0229
     14 C          -9.8909  -16.6266   24.4593 C.ar    1  UNL1        0.0059
     15 C         -10.2209  -16.4876   23.0026 C.ar    1  UNL1        0.0005
     16 C          -9.1828  -15.9867   22.0429 C.ar    1  UNL1       -0.0002
     17 C          -7.8146  -15.6246   22.5397 C.ar    1  UNL1       -0.0021
     18 C          -7.4845  -15.7636   23.9964 C.ar    1  UNL1        0.0031
     19 C          -8.3653  -15.2338   27.3358 C.3     1  UNL1        0.0741
     20 S          -8.1927  -16.4035   26.4128 S.3     1  UNL1       -0.1130
     21 N          -4.4497  -19.7601   21.6620 N.pl3   1  UNL1       -0.3131
     22 H          -3.9819  -20.3797   21.0567 H       1  UNL1        0.1484
     23 C          -5.6821  -20.2097   22.3895 C.3     1  UNL1        0.0883
     24 C          -7.0383  -19.9171   21.8192 C.3     1  UNL1        0.0196
     25 C          -8.2501  -19.9689   22.7018 C.3     1  UNL1        0.0017
     26 C          -9.6062  -19.6763   22.1315 C.3     1  UNL1        0.0014
     27 C          -9.7506  -19.3320   20.6788 C.3     1  UNL1        0.0155
     28 C          -8.5389  -19.2802   19.7962 C.3     1  UNL1        0.0014
     29 C          -7.1827  -19.5728   20.3664 C.3     1  UNL1        0.0017
     30 C         -11.1069  -19.0394   20.1085 C.3     1  UNL1        0.0651
     31 N         -11.4582  -17.6433   19.6874 N.3     1  UNL1       -0.3211
     32 H         -11.4833  -17.0371   20.5073 H       1  UNL1        0.1189
     33 H         -12.3733  -17.6442   19.2370 H       1  UNL1        0.1189
@<TRIPOS>UNITY_ATOM_ATTR
7 1
charge 1
9 1
charge -1
@<TRIPOS>BOND
     1    19    20    1
     2    20    13    1
     3    13    14   ar
     4    14    15   ar
     5    15    16   ar
     6    16    17   ar
     7    17    18   ar
     8    18    12    1
     9    12    10    1
    10    10     1    1
    11     1     2   ar
    12     2     3   ar
    13     3     4   ar
    14     4     7    1
    15     7     8    2
    16     7     9    1
    17     4     5   ar
    18     5    21    1
    19    21    23    1
    20    23    24    1
    21    24    25    1
    22    25    26    1
    23    26    27    1
    24    27    30    1
    25    30    31    1
    26    27    28    1
    27    28    29    1
    28     5     6   ar
    29    18    13   ar
    30     6     1   ar
    31    29    24    1
    32    10    11    1
    33    21    22    1
    34    31    32    1
    35    31    33    1
@<TRIPOS>MOLECULE
*****
 33 35 0 0 0
SMALL
GASTEIGER

@<TRIPOS>ATOM
      1 C          -5.8337  -20.0152   21.7568 C.ar    1  UNL1        0.2187
      2 N          -5.2353  -20.5439   20.4870 N.ar    1  UNL1       -0.2057
      3 C          -3.9685  -19.9469   19.9495 C.ar    1  UNL1        0.1799
      4 C          -3.3001  -18.8214   20.6818 C.ar    1  UNL1        0.3398
      5 C          -3.8985  -18.2927   21.9517 C.ar    1  UNL1        0.2031
      6 N          -5.1653  -18.8896   22.4892 N.ar    1  UNL1       -0.1927
      7 N          -2.0334  -18.2244   20.1444 N.pl3   1  UNL1        0.0855
      8 O          -2.0456  -17.4928   18.8349 O.2     1  UNL1        0.0416
      9 O          -0.7543  -18.3591   20.9163 O.co2   1  UNL1       -0.5759
     10 N          -7.1005  -20.6122   22.2943 N.pl3   1  UNL1       -0.2990
     11 H          -7.2145  -21.5899   22.3135 H       1  UNL1        0.1500
     12 C          -8.1936  -19.7195   22.8026 C.3     1  UNL1        0.1170
     13 C         -10.5943  -18.7930   22.4442 C.ar    1  UNL1        0.0229
     14 C         -11.6926  -18.3529   21.5224 C.ar    1  UNL1        0.0059
     15 C         -11.4887  -18.3991   20.0370 C.ar    1  UNL1        0.0005
     16 C         -10.1865  -18.8855   19.4735 C.ar    1  UNL1       -0.0002
     17 C          -9.0882  -19.3256   20.3953 C.ar    1  UNL1       -0.0021
     18 C          -9.2920  -19.2793   21.8807 C.ar    1  UNL1        0.0031
     19 C         -12.1837  -18.6355   24.4933 C.3     1  UNL1        0.0741
     20 S         -10.7981  -18.7467   23.9296 S.3     1  UNL1       -0.1130
     21 N          -3.2302  -17.1672   22.6840 N.pl3   1  UNL1       -0.3131
     22 H          -2.3185  -17.2824   23.0374 H       1  UNL1        0.1484
     23 C          -3.9508  -15.8660   22.8780 C.3     1  UNL1        0.0883
     24 C          -5.0352  -15.7556   23.9085 C.3     1  UNL1        0.0196
     25 C          -4.6865  -15.7570   25.3674 C.3     1  UNL1        0.0017
     26 C          -5.7709  -15.6466   26.3978 C.3     1  UNL1        0.0014
     27 C          -7.2041  -15.5349   25.9693 C.3     1  UNL1        0.0155
     28 C          -7.5528  -15.5335   24.5104 C.3     1  UNL1        0.0014
     29 C          -6.4684  -15.6438   23.4800 C.3     1  UNL1        0.0017
     30 C          -8.2886  -15.4245   26.9998 C.3     1  UNL1        0.0651
     31 N          -8.6707  -16.6224   27.8177 N.3     1  UNL1       -0.3211
     32 H          -9.0833  -17.3308   27.2109 H       1  UNL1        0.1189
     33 H          -9.3485  -16.3467   28.5283 H       1  UNL1        0.1189
@<TRIPOS>UNITY_ATOM_ATTR
7 1
charge 1
9 1
charge -1
@<TRIPOS>BOND
     1    19    20    1
     2    20    13    1
     3    13    14   ar
     4    14    15   ar
     5    15    16   ar
     6    16    17   ar
     7    17    18   ar
     8    18    12    1
     9    12    10    1
    10    10     1    1
    11     1     2   ar
    12     2     3   ar
    13     3     4   ar
    14     4     7    1
    15     7     8    2
    16     7     9    1
    17     4     5   ar
    18     5    21    1
    19    21    23    1
    20    23    24    1
    21    24    25    1
    22    25    26    1
    23    26    27    1
    24    27    30    1
    25    30    31    1
    26    27    28    1
    27    28    29    1
    28     5     6   ar
    29    18    13   ar
    30     6     1   ar
    31    29    24    1
    32    10    11    1
    33    21    22    1
    34    31    32    1
    35    31    33    1
@<TRIPOS>MOLECULE
*****
 33 35 0 0 0
SMALL
GASTEIGER

@<TRIPOS>ATOM
      1 C          -6.8138  -19.1664   21.3078 C.ar    1  UNL1        0.2187
      2 N          -6.1721  -20.0401   20.2711 N.ar    1  UNL1       -0.2057
      3 C          -4.6829  -20.0208   20.0914 C.ar    1  UNL1        0.1799
      4 C          -3.8356  -19.1278   20.9485 C.ar    1  UNL1        0.3398
      5 C          -4.4774  -18.2541   21.9852 C.ar    1  UNL1        0.2031
      6 N          -5.9664  -18.2734   22.1649 N.ar    1  UNL1       -0.1927
      7 N          -2.3466  -19.1085   20.7688 N.pl3   1  UNL1        0.0855
      8 O          -1.4455  -19.2477   21.9600 O.2     1  UNL1        0.0416
      9 O          -1.7585  -18.9500   19.3980 O.co2   1  UNL1       -0.5759
     10 N          -8.3028  -19.1857   21.4875 N.pl3   1  UNL1       -0.2990
     11 H          -8.7956  -20.0355   21.4219 H       1  UNL1        0.1500
     12 C          -9.0411  -17.9103   21.7671 C.3     1  UNL1        0.1170
     13 C         -10.8808  -18.4599   23.5175 C.ar    1  UNL1        0.0229
     14 C         -12.3273  -18.5017   23.9123 C.ar    1  UNL1        0.0059
     15 C         -13.3807  -18.0358   22.9514 C.ar    1  UNL1        0.0005
     16 C         -12.9876  -17.5281   21.5958 C.ar    1  UNL1       -0.0002
     17 C         -11.5411  -17.4863   21.2011 C.ar    1  UNL1       -0.0021
     18 C         -10.4877  -17.9521   22.1619 C.ar    1  UNL1        0.0031
     19 C          -9.6771  -18.2531   25.8107 C.3     1  UNL1        0.0741
     20 S          -9.8273  -18.9257   24.4784 S.3     1  UNL1       -0.1130
     21 N          -3.6301  -17.3611   22.8423 N.pl3   1  UNL1       -0.3131
     22 H          -2.7639  -17.6825   23.1823 H       1  UNL1        0.1484
     23 C          -4.1025  -15.9784   23.1813 C.3     1  UNL1        0.0883
     24 C          -5.2078  -15.7865   24.1770 C.3     1  UNL1        0.0196
     25 C          -6.6034  -15.5065   23.7038 C.3     1  UNL1        0.0017
     26 C          -7.7086  -15.3147   24.6996 C.3     1  UNL1        0.0014
     27 C          -7.4183  -15.4029   26.1686 C.3     1  UNL1        0.0155
     28 C          -6.0228  -15.6829   26.6418 C.3     1  UNL1        0.0014
     29 C          -4.9175  -15.8747   25.6460 C.3     1  UNL1        0.0017
     30 C          -8.5236  -15.2110   27.1643 C.3     1  UNL1        0.0651
     31 N          -8.3938  -14.1718   28.2381 N.3     1  UNL1       -0.3211
     32 H          -7.6367  -14.4296   28.8711 H       1  UNL1        0.1189
     33 H          -9.2679  -14.1113   28.7603 H       1  UNL1        0.1189
@<TRIPOS>UNITY_ATOM_ATTR
7 1
charge 1
9 1
charge -1
@<TRIPOS>BOND
     1    19    20    1
     2    20    13    1
     3    13    14   ar
     4    14    15   ar
     5    15    16   ar
     6    16    17   ar
     7    17    18   ar
     8    18    12    1
     9    12    10    1
    10    10     1    1
    11     1     2   ar
    12     2     3   ar
    13     3     4   ar
    14     4     7    1
    15     7     8    2
    16     7     9    1
    17     4     5   ar
    18     5    21    1
    19    21    23    1
    20    23    24    1
    21    24    25    1
    22    25    26    1
    23    26    27    1
    24    27    30    1
    25    30    31    1
    26    27    28    1
    27    28    29    1
    28     5     6   ar
    29    18    13   ar
    30     6     1   ar
    31    29    24    1
    32    10    11    1
    33    21    22    1
    34    31    32    1
    35    31    33    1
@<TRIPOS>MOLECULE
*****
 33 35 0 0 0
SMALL
GASTEIGER

@<TRIPOS>ATOM
      1 C          -8.2243  -16.0752   22.0356 C.ar    1  UNL1        0.2187
      2 N          -9.5978  -15.9952   21.4381 N.ar    1  UNL1       -0.2057
      3 C         -10.2543  -17.2316   20.8990 C.ar    1  UNL1        0.1799
      4 C          -9.5372  -18.5478   20.9574 C.ar    1  UNL1        0.3398
      5 C          -8.1637  -18.6277   21.5548 C.ar    1  UNL1        0.2031
      6 N          -7.5072  -17.3914   22.0939 N.ar    1  UNL1       -0.1927
      7 N         -10.1937  -19.7840   20.4183 N.pl3   1  UNL1        0.0855
      8 O         -11.3023  -20.4404   21.1867 O.2     1  UNL1        0.0416
      9 O          -9.7416  -20.3640   19.1110 O.co2   1  UNL1       -0.5759
     10 N          -7.5678  -14.8389   22.5746 N.pl3   1  UNL1       -0.2990
     11 H          -6.8694  -14.3840   22.0506 H       1  UNL1        0.1500
     12 C          -7.9753  -14.2957   23.9121 C.3     1  UNL1        0.1170
     13 C          -6.1789  -15.5007   25.3512 C.ar    1  UNL1        0.0229
     14 C          -5.7921  -16.2271   26.6052 C.ar    1  UNL1        0.0059
     15 C          -6.8147  -16.4751   27.6742 C.ar    1  UNL1        0.0005
     16 C          -8.2243  -15.9967   27.4891 C.ar    1  UNL1       -0.0002
     17 C          -8.6111  -15.2702   26.2351 C.ar    1  UNL1       -0.0021
     18 C          -7.5884  -15.0222   25.1662 C.ar    1  UNL1        0.0031
     19 C          -4.4299  -16.4065   23.6571 C.3     1  UNL1        0.0741
     20 S          -5.1562  -15.2527   24.2823 S.3     1  UNL1       -0.1130
     21 N          -7.4466  -19.9438   21.6132 N.pl3   1  UNL1       -0.3131
     22 H          -7.6273  -20.5706   22.3506 H       1  UNL1        0.1484
     23 C          -6.4541  -20.3051   20.5481 C.3     1  UNL1        0.0883
     24 C          -5.0784  -19.7077   20.5711 C.3     1  UNL1        0.0196
     25 C          -4.5488  -18.9976   19.3607 C.3     1  UNL1        0.0017
     26 C          -3.1731  -18.4002   19.3837 C.3     1  UNL1        0.0014
     27 C          -2.3270  -18.5129   20.6172 C.3     1  UNL1        0.0155
     28 C          -2.8566  -19.2231   21.8276 C.3     1  UNL1        0.0014
     29 C          -4.2323  -19.8204   21.8046 C.3     1  UNL1        0.0017
     30 C          -0.9513  -17.9155   20.6402 C.3     1  UNL1        0.0651
     31 N           0.1473  -18.5308   19.8250 N.3     1  UNL1       -0.3211
     32 H           0.3590  -19.4607   20.1866 H       1  UNL1        0.1189
     33 H           0.9811  -17.9460   19.8817 H       1  UNL1        0.1189
@<TRIPOS>UNITY_ATOM_ATTR
7 1
charge 1
9 1
charge -1
@<TRIPOS>BOND
     1    19    20    1
     2    20    13    1
     3    13    14   ar
     4    14    15   ar
     5    15    16   ar
     6    16    17   ar
     7    17    18   ar
     8    18    12    1
     9    12    10    1
    10    10     1    1
    11     1     2   ar
    12     2     3   ar
    13     3     4   ar
    14     4     7    1
    15     7     8    2
    16     7     9    1
    17     4     5   ar
    18     5    21    1
    19    21    23    1
    20    23    24    1
    21    24    25    1
    22    25    26    1
    23    26    27    1
    24    27    30    1
    25    30    31    1
    26    27    28    1
    27    28    29    1
    28     5     6   ar
    29    18    13   ar
    30     6     1   ar
    31    29    24    1
    32    10    11    1
    33    21    22    1
    34    31    32    1
    35    31    33    1
