@<TRIPOS>MOLECULE
*****
 29 32 0 0 0
SMALL
GASTEIGER

@<TRIPOS>ATOM
      1 C          -5.6122  -16.6453   23.4785 C.ar    1  UNL1        0.0686
      2 C          -6.0660  -15.4856   24.3146 C.ar    1  UNL1        0.1045
      3 N          -7.5296  -15.2609   24.5542 N.ar    1  UNL1       -0.2290
      4 C          -8.5395  -16.1960   23.9576 C.ar    1  UNL1        0.1319
      5 C          -8.0857  -17.3557   23.1215 C.ar    1  UNL1        0.0303
      6 C          -6.6220  -17.5804   22.8819 C.ar    1  UNL1       -0.0138
      7 O          -3.4426  -18.0043   23.9205 O.2     1  UNL1       -0.2701
      8 C          -4.1487  -16.8699   23.2389 C.2     1  UNL1        0.2471
      9 N          -3.3911  -15.9602   22.3177 N.am    1  UNL1       -0.3008
     10 H          -3.8546  -15.2156   21.8704 H       1  UNL1        0.1497
     11 C          -1.9276  -16.1848   22.0781 C.3     1  UNL1        0.0898
     12 C          -1.4699  -16.8810   20.8307 C.3     1  UNL1        0.0246
     13 C          -0.0365  -17.2993   20.6881 C.3     1  UNL1        0.0338
     14 C           0.4210  -17.9955   19.4408 C.3     1  UNL1        0.1422
     15 O          -0.5548  -18.2734   18.3360 O.3     1  UNL1       -0.3538
     16 C          -1.9882  -17.8552   18.4786 C.3     1  UNL1        0.1422
     17 C          -2.4458  -17.1590   19.7260 C.3     1  UNL1        0.0338
     18 C          -6.1682  -18.7401   22.0458 C.3     1  UNL1        0.0226
     19 C          -5.4175  -19.2726   20.8615 C.3     1  UNL1        0.0047
     20 C          -6.1331  -20.2163   21.7820 C.3     1  UNL1        0.0047
     21 N         -10.0030  -15.9714   24.1972 N.pl3   1  UNL1       -0.2979
     22 H         -10.3014  -15.4822   24.9978 H       1  UNL1        0.1536
     23 C         -11.0121  -16.4920   23.2170 C.ar    1  UNL1        0.0499
     24 C         -11.9874  -17.5517   23.6362 C.ar    1  UNL1        0.0147
     25 C         -12.9965  -18.0723   22.6560 C.ar    1  UNL1        0.0018
     26 C         -13.0302  -17.5332   21.2566 C.ar    1  UNL1        0.0068
     27 C         -12.0548  -16.4735   20.8375 C.ar    1  UNL1        0.0358
     28 BR        -12.0885  -15.9344   19.4381 Br      1  UNL1       -0.0490
     29 C         -11.0458  -15.9529   21.8177 C.ar    1  UNL1        0.0213
@<TRIPOS>BOND
     1     7     8    2
     2     8     9   am
     3     9    11    1
     4    11    12    1
     5    12    13    1
     6    13    14    1
     7    14    15    1
     8    15    16    1
     9    16    17    1
    10     8     1    1
    11     1     2   ar
    12     2     3   ar
    13     3     4   ar
    14     4    21    1
    15    21    23    1
    16    23    24   ar
    17    24    25   ar
    18    25    26   ar
    19    26    27   ar
    20    27    28    1
    21    27    29   ar
    22     4     5   ar
    23     5     6   ar
    24     6    18    1
    25    18    19    1
    26    19    20    1
    27    17    12    1
    28     6     1   ar
    29    20    18    1
    30    29    23   ar
    31     9    10    1
    32    21    22    1
@<TRIPOS>MOLECULE
*****
 29 32 0 0 0
SMALL
GASTEIGER

@<TRIPOS>ATOM
      1 C          -6.4509  -19.2678   20.3497 C.ar    1  UNL1        0.0686
      2 C          -7.2043  -20.0405   19.3079 C.ar    1  UNL1        0.1045
      3 N          -8.7037  -20.0709   19.3349 N.ar    1  UNL1       -0.2290
      4 C          -9.4498  -19.3286   20.4038 C.ar    1  UNL1        0.1319
      5 C          -8.6964  -18.5559   21.4456 C.ar    1  UNL1        0.0303
      6 C          -7.1969  -18.5255   21.4185 C.ar    1  UNL1       -0.0138
      7 O          -4.2364  -18.4228   19.2858 O.2     1  UNL1       -0.2701
      8 C          -4.9515  -19.2374   20.3227 C.2     1  UNL1        0.2471
      9 N          -4.1671  -20.0217   21.3325 N.am    1  UNL1       -0.3008
     10 H          -4.6364  -20.5564   22.0130 H       1  UNL1        0.1497
     11 C          -2.6676  -19.9913   21.3055 C.3     1  UNL1        0.0898
     12 C          -1.9480  -18.6984   21.0590 C.3     1  UNL1        0.0246
     13 C          -2.3213  -17.4720   21.8378 C.3     1  UNL1        0.0338
     14 C          -1.6016  -16.1793   21.5914 C.3     1  UNL1        0.1422
     15 O          -0.5087  -16.1129   20.5661 O.3     1  UNL1       -0.3538
     16 C          -0.1354  -17.3393   19.7874 C.3     1  UNL1        0.1422
     17 C          -0.8550  -18.6321   20.0338 C.3     1  UNL1        0.0338
     18 C          -6.4435  -17.7528   22.4603 C.3     1  UNL1        0.0226
     19 C          -5.2253  -17.5740   23.3171 C.3     1  UNL1        0.0047
     20 C          -6.3567  -16.5933   23.4079 C.3     1  UNL1        0.0047
     21 N         -10.9492  -19.3589   20.4308 N.pl3   1  UNL1       -0.2979
     22 H         -11.4376  -20.0299   19.9012 H       1  UNL1        0.1536
     23 C         -11.7046  -18.3670   21.2648 C.ar    1  UNL1        0.0499
     24 C         -11.7679  -16.9283   20.8452 C.ar    1  UNL1        0.0147
     25 C         -12.5233  -15.9364   21.6792 C.ar    1  UNL1        0.0018
     26 C         -13.2153  -16.3832   22.9328 C.ar    1  UNL1        0.0068
     27 C         -13.1520  -17.8219   23.3523 C.ar    1  UNL1        0.0358
     28 BR        -13.8440  -18.2688   24.6059 Br      1  UNL1       -0.0490
     29 C         -12.3966  -18.8138   22.5183 C.ar    1  UNL1        0.0213
@<TRIPOS>BOND
     1     7     8    2
     2     8     9   am
     3     9    11    1
     4    11    12    1
     5    12    13    1
     6    13    14    1
     7    14    15    1
     8    15    16    1
     9    16    17    1
    10     8     1    1
    11     1     2   ar
    12     2     3   ar
    13     3     4   ar
    14     4    21    1
    15    21    23    1
    16    23    24   ar
    17    24    25   ar
    18    25    26   ar
    19    26    27   ar
    20    27    28    1
    21    27    29   ar
    22     4     5   ar
    23     5     6   ar
    24     6    18    1
    25    18    19    1
    26    19    20    1
    27    17    12    1
    28     6     1   ar
    29    20    18    1
    30    29    23   ar
    31     9    10    1
    32    21    22    1
@<TRIPOS>MOLECULE
*****
 29 32 0 0 0
SMALL
GASTEIGER

@<TRIPOS>ATOM
      1 C          -6.1362  -19.4205   20.6535 C.ar    1  UNL1        0.0686
      2 C          -7.2676  -20.0623   19.9065 C.ar    1  UNL1        0.1045
      3 N          -8.6245  -20.1588   20.5386 N.ar    1  UNL1       -0.2290
      4 C          -8.8500  -19.6135   21.9177 C.ar    1  UNL1        0.1319
      5 C          -7.7186  -18.9716   22.6647 C.ar    1  UNL1        0.0303
      6 C          -6.3616  -18.8752   22.0326 C.ar    1  UNL1       -0.0138
      7 O          -3.7407  -20.3664   20.3121 O.2     1  UNL1       -0.2701
      8 C          -4.7793  -19.3239   20.0215 C.2     1  UNL1        0.2471
      9 N          -4.4610  -18.1849   19.0988 N.am    1  UNL1       -0.3008
     10 H          -5.1427  -17.5006   18.9080 H       1  UNL1        0.1497
     11 C          -3.1041  -18.0884   18.4667 C.3     1  UNL1        0.0898
     12 C          -1.9221  -17.6669   19.2886 C.3     1  UNL1        0.0246
     13 C          -0.5576  -18.2019   18.9694 C.3     1  UNL1        0.0338
     14 C           0.6242  -17.7804   19.7913 C.3     1  UNL1        0.1422
     15 O           0.4416  -16.8240   20.9323 O.3     1  UNL1       -0.3538
     16 C          -0.9228  -16.2890   21.2514 C.3     1  UNL1        0.1422
     17 C          -2.1047  -16.7105   20.4296 C.3     1  UNL1        0.0338
     18 C          -5.2302  -18.2333   22.7795 C.3     1  UNL1        0.0226
     19 C          -3.8293  -18.2877   23.3129 C.3     1  UNL1        0.0047
     20 C          -4.6715  -17.0674   23.5400 C.3     1  UNL1        0.0047
     21 N         -10.2069  -19.7100   22.5497 N.pl3   1  UNL1       -0.2979
     22 H         -10.4460  -20.5018   23.0837 H       1  UNL1        0.1536
     23 C         -11.1994  -18.6001   22.3683 C.ar    1  UNL1        0.0499
     24 C         -12.2082  -18.3132   23.4407 C.ar    1  UNL1        0.0147
     25 C         -13.2007  -17.2033   23.2592 C.ar    1  UNL1        0.0018
     26 C         -13.1846  -16.3803   22.0053 C.ar    1  UNL1        0.0068
     27 C         -12.1759  -16.6672   20.9329 C.ar    1  UNL1        0.0358
     28 BR        -12.1598  -15.8441   19.6789 Br      1  UNL1       -0.0490
     29 C         -11.1833  -17.7771   21.1143 C.ar    1  UNL1        0.0213
@<TRIPOS>BOND
     1     7     8    2
     2     8     9   am
     3     9    11    1
     4    11    12    1
     5    12    13    1
     6    13    14    1
     7    14    15    1
     8    15    16    1
     9    16    17    1
    10     8     1    1
    11     1     2   ar
    12     2     3   ar
    13     3     4   ar
    14     4    21    1
    15    21    23    1
    16    23    24   ar
    17    24    25   ar
    18    25    26   ar
    19    26    27   ar
    20    27    28    1
    21    27    29   ar
    22     4     5   ar
    23     5     6   ar
    24     6    18    1
    25    18    19    1
    26    19    20    1
    27    17    12    1
    28     6     1   ar
    29    20    18    1
    30    29    23   ar
    31     9    10    1
    32    21    22    1
@<TRIPOS>MOLECULE
*****
 29 32 0 0 0
SMALL
GASTEIGER

@<TRIPOS>ATOM
      1 C           7.4075   -2.3800   19.4446 C.ar    1  UNL1        0.0686
      2 C           8.8686   -2.2931   19.7728 C.ar    1  UNL1        0.1045
      3 N           9.5049   -3.3353   20.6439 N.ar    1  UNL1       -0.2290
      4 C           8.6801   -4.4644   21.1870 C.ar    1  UNL1        0.1319
      5 C           7.2190   -4.5513   20.8589 C.ar    1  UNL1        0.0303
      6 C           6.5827   -3.5090   19.9877 C.ar    1  UNL1       -0.0138
      7 O           6.5588   -1.6085   17.1134 O.2     1  UNL1       -0.2701
      8 C           6.7712   -1.3378   18.5735 C.2     1  UNL1        0.2471
      9 N           6.3472   -0.0249   19.1623 N.am    1  UNL1       -0.3008
     10 H           6.4866    0.1527   20.1206 H       1  UNL1        0.1497
     11 C           5.7109    1.0172   18.2912 C.3     1  UNL1        0.0898
     12 C           4.2357    1.2731   18.3833 C.3     1  UNL1        0.0246
     13 C           3.2659    0.1430   18.2040 C.3     1  UNL1        0.0338
     14 C           1.7908    0.3989   18.2962 C.3     1  UNL1        0.1422
     15 O           1.2855    1.7849   18.5677 O.3     1  UNL1       -0.3538
     16 C           2.2554    2.9150   18.7470 C.3     1  UNL1        0.1422
     17 C           3.7305    2.6591   18.6548 C.3     1  UNL1        0.0338
     18 C           5.1216   -3.5959   19.6595 C.3     1  UNL1        0.0226
     19 C           3.9797   -4.3049   18.9938 C.3     1  UNL1        0.0047
     20 C           3.7329   -3.0374   19.7570 C.3     1  UNL1        0.0047
     21 N           9.3164   -5.5066   22.0582 N.pl3   1  UNL1       -0.2979
     22 H          10.1485   -5.9473   21.7707 H       1  UNL1        0.1536
     23 C           8.6850   -5.8772   23.3673 C.ar    1  UNL1        0.0499
     24 C           8.6027   -7.3171   23.7793 C.ar    1  UNL1        0.0147
     25 C           7.9713   -7.6878   25.0885 C.ar    1  UNL1        0.0018
     26 C           7.4222   -6.6185   25.9857 C.ar    1  UNL1        0.0068
     27 C           7.5045   -5.1785   25.5737 C.ar    1  UNL1        0.0358
     28 BR          6.9553   -4.1091   26.4709 Br      1  UNL1       -0.0490
     29 C           8.1359   -4.8079   24.2645 C.ar    1  UNL1        0.0213
@<TRIPOS>BOND
     1     7     8    2
     2     8     9   am
     3     9    11    1
     4    11    12    1
     5    12    13    1
     6    13    14    1
     7    14    15    1
     8    15    16    1
     9    16    17    1
    10     8     1    1
    11     1     2   ar
    12     2     3   ar
    13     3     4   ar
    14     4    21    1
    15    21    23    1
    16    23    24   ar
    17    24    25   ar
    18    25    26   ar
    19    26    27   ar
    20    27    28    1
    21    27    29   ar
    22     4     5   ar
    23     5     6   ar
    24     6    18    1
    25    18    19    1
    26    19    20    1
    27    17    12    1
    28     6     1   ar
    29    20    18    1
    30    29    23   ar
    31     9    10    1
    32    21    22    1
@<TRIPOS>MOLECULE
*****
 29 32 0 0 0
SMALL
GASTEIGER

@<TRIPOS>ATOM
      1 C           4.9540   -1.8830   20.9802 C.ar    1  UNL1        0.0686
      2 C           5.6744   -1.0089   21.9636 C.ar    1  UNL1        0.1045
      3 N           6.7559   -1.5858   22.8282 N.ar    1  UNL1       -0.2290
      4 C           7.1170   -3.0369   22.7094 C.ar    1  UNL1        0.1319
      5 C           6.3967   -3.9110   21.7260 C.ar    1  UNL1        0.0303
      6 C           5.3151   -3.3340   20.8614 C.ar    1  UNL1       -0.0138
      7 O           2.4522   -1.2962   20.5978 O.2     1  UNL1       -0.2701
      8 C           3.8725   -1.3061   20.1157 C.2     1  UNL1        0.2471
      9 N           4.2114   -0.7390   18.7689 N.am    1  UNL1       -0.3008
     10 H           5.1437   -0.7455   18.4525 H       1  UNL1        0.1497
     11 C           3.1299   -0.1621   17.9043 C.3     1  UNL1        0.0898
     12 C           2.4986    1.1492   18.2678 C.3     1  UNL1        0.0246
     13 C           3.3567    2.3600   18.4853 C.3     1  UNL1        0.0338
     14 C           2.7254    3.6712   18.8488 C.3     1  UNL1        0.1422
     15 O           1.2359    3.7715   18.9947 O.3     1  UNL1       -0.3538
     16 C           0.3777    2.5607   18.7772 C.3     1  UNL1        0.1422
     17 C           1.0091    1.2495   18.4138 C.3     1  UNL1        0.0338
     18 C           4.5947   -4.2081   19.8781 C.3     1  UNL1        0.0226
     19 C           4.6167   -5.0934   18.6674 C.3     1  UNL1        0.0047
     20 C           3.3250   -4.8367   19.3855 C.3     1  UNL1        0.0047
     21 N           8.1985   -3.6138   23.5739 N.pl3   1  UNL1       -0.2979
     22 H           9.1044   -3.2289   23.5516 H       1  UNL1        0.1536
     23 C           7.8998   -4.7772   24.4725 C.ar    1  UNL1        0.0499
     24 C           8.2358   -6.1710   24.0317 C.ar    1  UNL1        0.0147
     25 C           7.9371   -7.3343   24.9303 C.ar    1  UNL1        0.0018
     26 C           7.3025   -7.1038   26.2697 C.ar    1  UNL1        0.0068
     27 C           6.9665   -5.7100   26.7105 C.ar    1  UNL1        0.0358
     28 BR          6.3318   -5.4795   28.0500 Br      1  UNL1       -0.0490
     29 C           7.2652   -4.5467   25.8119 C.ar    1  UNL1        0.0213
@<TRIPOS>BOND
     1     7     8    2
     2     8     9   am
     3     9    11    1
     4    11    12    1
     5    12    13    1
     6    13    14    1
     7    14    15    1
     8    15    16    1
     9    16    17    1
    10     8     1    1
    11     1     2   ar
    12     2     3   ar
    13     3     4   ar
    14     4    21    1
    15    21    23    1
    16    23    24   ar
    17    24    25   ar
    18    25    26   ar
    19    26    27   ar
    20    27    28    1
    21    27    29   ar
    22     4     5   ar
    23     5     6   ar
    24     6    18    1
    25    18    19    1
    26    19    20    1
    27    17    12    1
    28     6     1   ar
    29    20    18    1
    30    29    23   ar
    31     9    10    1
    32    21    22    1
@<TRIPOS>MOLECULE
*****
 29 32 0 0 0
SMALL
GASTEIGER

@<TRIPOS>ATOM
      1 C           1.1506    1.1335   23.7969 C.ar    1  UNL1        0.0686
      2 C           0.3374    1.5625   22.6117 C.ar    1  UNL1        0.1045
      3 N           0.6701    1.0406   21.2454 N.ar    1  UNL1       -0.2290
      4 C           1.8161    0.0898   21.0642 C.ar    1  UNL1        0.1319
      5 C           2.6292   -0.3392   22.2494 C.ar    1  UNL1        0.0303
      6 C           2.2965    0.1827   23.6158 C.ar    1  UNL1       -0.0138
      7 O           1.4525    2.9214   25.6577 O.2     1  UNL1       -0.2701
      8 C           0.8179    1.6553   25.1633 C.2     1  UNL1        0.2471
      9 N          -0.1496    0.9112   26.0353 N.am    1  UNL1       -0.3008
     10 H          -0.5661    0.0802   25.7109 H       1  UNL1        0.1497
     11 C          -0.4823    1.4330   27.4017 C.3     1  UNL1        0.0898
     12 C           0.3849    1.0762   28.5725 C.3     1  UNL1        0.0246
     13 C           0.4376    1.9788   29.7694 C.3     1  UNL1        0.0338
     14 C           1.3048    1.6220   30.9401 C.3     1  UNL1        0.1422
     15 O           2.1193    0.3627   30.9139 O.3     1  UNL1       -0.3538
     16 C           2.0666   -0.5399   29.7171 C.3     1  UNL1        0.1422
     17 C           1.1994   -0.1831   28.5463 C.3     1  UNL1        0.0338
     18 C           3.1097   -0.2462   24.8010 C.3     1  UNL1        0.0226
     19 C           3.8277   -1.3197   25.5639 C.3     1  UNL1        0.0047
     20 C           3.8000    0.0843   26.0910 C.3     1  UNL1        0.0047
     21 N           2.1488   -0.4321   19.6979 N.pl3   1  UNL1       -0.2979
     22 H           1.5368   -0.2657   18.9449 H       1  UNL1        0.1536
     23 C           3.4140   -1.2075   19.4787 C.ar    1  UNL1        0.0499
     24 C           4.7273   -0.4890   19.3850 C.ar    1  UNL1        0.0147
     25 C           5.9925   -1.2644   19.1659 C.ar    1  UNL1        0.0018
     26 C           5.9443   -2.7584   19.0405 C.ar    1  UNL1        0.0068
     27 C           4.6310   -3.4769   19.1342 C.ar    1  UNL1        0.0358
     28 BR          4.5828   -4.9709   19.0088 Br      1  UNL1       -0.0490
     29 C           3.3658   -2.7015   19.3533 C.ar    1  UNL1        0.0213
@<TRIPOS>BOND
     1     7     8    2
     2     8     9   am
     3     9    11    1
     4    11    12    1
     5    12    13    1
     6    13    14    1
     7    14    15    1
     8    15    16    1
     9    16    17    1
    10     8     1    1
    11     1     2   ar
    12     2     3   ar
    13     3     4   ar
    14     4    21    1
    15    21    23    1
    16    23    24   ar
    17    24    25   ar
    18    25    26   ar
    19    26    27   ar
    20    27    28    1
    21    27    29   ar
    22     4     5   ar
    23     5     6   ar
    24     6    18    1
    25    18    19    1
    26    19    20    1
    27    17    12    1
    28     6     1   ar
    29    20    18    1
    30    29    23   ar
    31     9    10    1
    32    21    22    1
@<TRIPOS>MOLECULE
*****
 29 32 0 0 0
SMALL
GASTEIGER

@<TRIPOS>ATOM
      1 C           6.1037   -3.3887   23.9660 C.ar    1  UNL1        0.0686
      2 C           6.4785   -4.2833   22.8218 C.ar    1  UNL1        0.1045
      3 N           5.7079   -4.2198   21.5365 N.ar    1  UNL1       -0.2290
      4 C           4.5624   -3.2616   21.3953 C.ar    1  UNL1        0.1319
      5 C           4.1876   -2.3670   22.5395 C.ar    1  UNL1        0.0303
      6 C           4.9583   -2.4306   23.8248 C.ar    1  UNL1       -0.0138
      7 O           8.0864   -2.5895   25.4425 O.2     1  UNL1       -0.2701
      8 C           6.8743   -3.4522   25.2513 C.2     1  UNL1        0.2471
      9 N           6.4328   -4.3784   26.3455 N.am    1  UNL1       -0.3008
     10 H           5.6373   -4.9447   26.2200 H       1  UNL1        0.1497
     11 C           7.2035   -4.4419   27.6308 C.3     1  UNL1        0.0898
     12 C           6.7284   -3.6743   28.8288 C.3     1  UNL1        0.0246
     13 C           6.8351   -4.2787   30.1975 C.3     1  UNL1        0.0338
     14 C           6.3601   -3.5111   31.3954 C.3     1  UNL1        0.1422
     15 O           5.7784   -2.1391   31.2247 O.3     1  UNL1       -0.3538
     16 C           5.6717   -1.5347   29.8560 C.3     1  UNL1        0.1422
     17 C           6.1467   -2.3023   28.6581 C.3     1  UNL1        0.0338
     18 C           4.5835   -1.5360   24.9690 C.3     1  UNL1        0.0226
     19 C           4.8355   -0.3104   25.7963 C.3     1  UNL1        0.0047
     20 C           3.6822   -1.2120   26.1235 C.3     1  UNL1        0.0047
     21 N           3.7918   -3.1981   20.1100 N.pl3   1  UNL1       -0.2979
     22 H           3.5971   -4.0245   19.6114 H       1  UNL1        0.1536
     23 C           3.3179   -1.8757   19.5842 C.ar    1  UNL1        0.0499
     24 C           4.0806   -1.1858   18.4923 C.ar    1  UNL1        0.0147
     25 C           3.6067    0.1367   17.9665 C.ar    1  UNL1        0.0018
     26 C           2.3700    0.7693   18.5326 C.ar    1  UNL1        0.0068
     27 C           1.6073    0.0794   19.6244 C.ar    1  UNL1        0.0358
     28 BR          0.3706    0.7119   20.1906 Br      1  UNL1       -0.0490
     29 C           2.0812   -1.2431   20.1502 C.ar    1  UNL1        0.0213
@<TRIPOS>BOND
     1     7     8    2
     2     8     9   am
     3     9    11    1
     4    11    12    1
     5    12    13    1
     6    13    14    1
     7    14    15    1
     8    15    16    1
     9    16    17    1
    10     8     1    1
    11     1     2   ar
    12     2     3   ar
    13     3     4   ar
    14     4    21    1
    15    21    23    1
    16    23    24   ar
    17    24    25   ar
    18    25    26   ar
    19    26    27   ar
    20    27    28    1
    21    27    29   ar
    22     4     5   ar
    23     5     6   ar
    24     6    18    1
    25    18    19    1
    26    19    20    1
    27    17    12    1
    28     6     1   ar
    29    20    18    1
    30    29    23   ar
    31     9    10    1
    32    21    22    1
@<TRIPOS>MOLECULE
*****
 29 32 0 0 0
SMALL
GASTEIGER

@<TRIPOS>ATOM
      1 C           7.1095   -4.4320   25.9246 C.ar    1  UNL1        0.0686
      2 C           6.6247   -3.0531   25.5874 C.ar    1  UNL1        0.1045
      3 N           6.6184   -2.5883   24.1613 N.ar    1  UNL1       -0.2290
      4 C           7.0968   -3.5022   23.0723 C.ar    1  UNL1        0.1319
      5 C           7.5816   -4.8811   23.4096 C.ar    1  UNL1        0.0303
      6 C           7.5880   -5.3460   24.8357 C.ar    1  UNL1       -0.0138
      7 O           5.8621   -5.4427   27.9672 O.2     1  UNL1       -0.2701
      8 C           7.1159   -4.8969   27.3507 C.2     1  UNL1        0.2471
      9 N           8.3761   -4.8160   28.1604 N.am    1  UNL1       -0.3008
     10 H           9.1990   -4.4578   27.7557 H       1  UNL1        0.1497
     11 C           8.3824   -5.2809   29.5865 C.3     1  UNL1        0.0898
     12 C           8.1531   -4.2985   30.6966 C.3     1  UNL1        0.0246
     13 C           6.7548   -3.9539   31.1162 C.3     1  UNL1        0.0338
     14 C           6.5256   -2.9716   32.2263 C.3     1  UNL1        0.1422
     15 O           7.6945   -2.3338   32.9168 O.3     1  UNL1       -0.3538
     16 C           9.0928   -2.6785   32.4972 C.3     1  UNL1        0.1422
     17 C           9.3220   -3.6608   31.3871 C.3     1  UNL1        0.0338
     18 C           8.0728   -6.7248   25.1730 C.3     1  UNL1        0.0226
     19 C           9.0776   -7.8258   25.0050 C.3     1  UNL1        0.0047
     20 C           7.9076   -8.0121   25.9250 C.3     1  UNL1        0.0047
     21 N           7.0905   -3.0373   21.6463 N.pl3   1  UNL1       -0.2979
     22 H           7.9154   -2.6867   21.2391 H       1  UNL1        0.1536
     23 C           5.8272   -3.1067   20.8404 C.ar    1  UNL1        0.0499
     24 C           5.6221   -4.2252   19.8623 C.ar    1  UNL1        0.0147
     25 C           4.3588   -4.2945   19.0564 C.ar    1  UNL1        0.0018
     26 C           3.3008   -3.2454   19.2287 C.ar    1  UNL1        0.0068
     27 C           3.5059   -2.1269   20.2068 C.ar    1  UNL1        0.0358
     28 BR          2.4478   -1.0777   20.3792 Br      1  UNL1       -0.0490
     29 C           4.7692   -2.0575   21.0127 C.ar    1  UNL1        0.0213
@<TRIPOS>BOND
     1     7     8    2
     2     8     9   am
     3     9    11    1
     4    11    12    1
     5    12    13    1
     6    13    14    1
     7    14    15    1
     8    15    16    1
     9    16    17    1
    10     8     1    1
    11     1     2   ar
    12     2     3   ar
    13     3     4   ar
    14     4    21    1
    15    21    23    1
    16    23    24   ar
    17    24    25   ar
    18    25    26   ar
    19    26    27   ar
    20    27    28    1
    21    27    29   ar
    22     4     5   ar
    23     5     6   ar
    24     6    18    1
    25    18    19    1
    26    19    20    1
    27    17    12    1
    28     6     1   ar
    29    20    18    1
    30    29    23   ar
    31     9    10    1
    32    21    22    1
@<TRIPOS>MOLECULE
*****
 29 32 0 0 0
SMALL
GASTEIGER

@<TRIPOS>ATOM
      1 C           6.0296   -3.3469   24.0610 C.ar    1  UNL1        0.0686
      2 C           6.4987   -4.2427   22.9531 C.ar    1  UNL1        0.1045
      3 N           5.8041   -4.2182   21.6238 N.ar    1  UNL1       -0.2290
      4 C           4.6405   -3.2977   21.4025 C.ar    1  UNL1        0.1319
      5 C           4.1715   -2.4019   22.5104 C.ar    1  UNL1        0.0303
      6 C           4.8661   -2.4265   23.8397 C.ar    1  UNL1       -0.0138
      7 O           7.8292   -2.3985   25.6773 O.2     1  UNL1       -0.2701
      8 C           6.7242   -3.3715   25.3903 C.2     1  UNL1        0.2471
      9 N           6.3137   -4.3690   26.4327 N.am    1  UNL1       -0.3008
     10 H           5.5884   -5.0076   26.2444 H       1  UNL1        0.1497
     11 C           7.0082   -4.3936   27.7620 C.3     1  UNL1        0.0898
     12 C           7.7806   -5.6089   28.1823 C.3     1  UNL1        0.0246
     13 C           7.7864   -6.8315   27.3133 C.3     1  UNL1        0.0338
     14 C           8.5587   -8.0467   27.7337 C.3     1  UNL1        0.1422
     15 O           9.3253   -8.0392   29.0230 O.3     1  UNL1       -0.3538
     16 C           9.3196   -6.8166   29.8919 C.3     1  UNL1        0.1422
     17 C           8.5472   -5.6014   29.4716 C.3     1  UNL1        0.0338
     18 C           4.3971   -1.5307   24.9477 C.3     1  UNL1        0.0226
     19 C           3.7312   -1.3517   26.2798 C.3     1  UNL1        0.0047
     20 C           4.2507   -0.1581   25.5345 C.3     1  UNL1        0.0047
     21 N           3.9460   -3.2731   20.0732 N.pl3   1  UNL1       -0.2979
     22 H           3.8321   -4.1067   19.5619 H       1  UNL1        0.1536
     23 C           3.4251   -1.9786   19.5230 C.ar    1  UNL1        0.0499
     24 C           4.1322   -1.3102   18.3814 C.ar    1  UNL1        0.0147
     25 C           3.6113   -0.0156   17.8312 C.ar    1  UNL1        0.0018
     26 C           2.3832    0.6105   18.4225 C.ar    1  UNL1        0.0068
     27 C           1.6761   -0.0579   19.5641 C.ar    1  UNL1        0.0358
     28 BR          0.4479    0.5683   20.1555 Br      1  UNL1       -0.0490
     29 C           2.1970   -1.3524   20.1143 C.ar    1  UNL1        0.0213
@<TRIPOS>BOND
     1     7     8    2
     2     8     9   am
     3     9    11    1
     4    11    12    1
     5    12    13    1
     6    13    14    1
     7    14    15    1
     8    15    16    1
     9    16    17    1
    10     8     1    1
    11     1     2   ar
    12     2     3   ar
    13     3     4   ar
    14     4    21    1
    15    21    23    1
    16    23    24   ar
    17    24    25   ar
    18    25    26   ar
    19    26    27   ar
    20    27    28    1
    21    27    29   ar
    22     4     5   ar
    23     5     6   ar
    24     6    18    1
    25    18    19    1
    26    19    20    1
    27    17    12    1
    28     6     1   ar
    29    20    18    1
    30    29    23   ar
    31     9    10    1
    32    21    22    1
