@<TRIPOS>MOLECULE
*****
 57 61 0 0 0
SMALL
GASTEIGER

@<TRIPOS>ATOM
      1 C           3.2869   -0.7398   22.2913 C.3     1  UNL1        0.0760
      2 C           4.1364   -0.3068   24.7081 C.2     1  UNL1        0.2404
      3 O           4.4990    1.0984   24.3289 O.2     1  UNL1       -0.2733
      4 N           3.5304   -1.2259   23.6894 N.am    1  UNL1       -0.3043
      5 H           3.2924   -2.1482   23.9383 H       1  UNL1        0.1494
      6 C           4.3799   -0.7930   26.1061 C.3     1  UNL1        0.1511
      7 N           7.2963   -3.4834   26.0268 N.am    1  UNL1       -0.2567
      8 C           8.6882   -3.6313   25.4877 C.3     1  UNL1        0.1168
      9 C           6.5341   -2.2121   25.7969 C.2     1  UNL1        0.3046
     10 O           7.1637   -1.0887   25.0279 O.2     1  UNL1       -0.2526
     11 N           5.1422   -2.0642   26.3360 N.am    1  UNL1       -0.2824
     12 H           4.7288   -2.8016   26.8407 H       1  UNL1        0.1514
     13 C           6.6666   -4.6068   26.7958 C.3     1  UNL1        0.1413
     14 C           6.7592   -3.9448   30.6192 C.ar    1  UNL1        0.0875
     15 N           6.5817   -3.4624   29.2100 N.ar    1  UNL1       -0.2453
     16 C           6.7597   -4.6358   28.2926 C.ar    1  UNL1        0.0858
     17 C           7.0473   -5.8433   29.1349 C.ar    1  UNL1        0.0530
     18 S           7.0469   -5.4162   30.5728 S.2     1  UNL1       -0.0705
     19 C           5.3334   -2.8701   32.5065 C.3     1  UNL1        0.0069
     20 C           6.6654   -3.1033   31.8574 C.3     1  UNL1        0.0465
     21 C           7.9036   -2.4952   32.4465 C.3     1  UNL1        0.0069
     22 C           3.8612   -0.0078   27.2742 C.3     1  UNL1        0.0463
     23 C           2.7013   -0.5269   28.0712 C.3     1  UNL1        0.0745
     24 N           1.3646    0.1472   27.9766 N.3     1  UNL1       -0.2684
     25 C           0.2708   -0.2180   28.9358 C.3     1  UNL1        0.1046
     26 C          -1.0657    0.4561   28.8412 C.3     1  UNL1        0.1595
     27 O          -1.3085    1.4956   27.7873 O.3     1  UNL1       -0.3508
     28 C          -0.2147    1.8609   26.8281 C.3     1  UNL1        0.1595
     29 C           1.1218    1.1867   26.9227 C.3     1  UNL1        0.1046
     30 C           1.9804   -0.0925   21.9393 C.3     1  UNL1        0.0216
     31 C           1.2739   -0.4704   20.6712 C.3     1  UNL1        0.0217
     32 C           0.6295    0.5891   19.8272 C.3     1  UNL1        0.0792
     33 N          -0.6106    1.2813   20.3100 N.am    1  UNL1       -0.2720
     34 C          -0.5076    2.6071   21.0041 C.2     1  UNL1        0.4019
     35 O           0.8354    3.2407   21.2153 O.2     1  UNL1       -0.2264
     36 H          -1.4921    0.8654   20.1714 H       1  UNL1        0.1527
     37 O          -1.7477    3.2992   21.4868 O.3     1  UNL1       -0.4291
     38 C          -2.4226    4.3203   20.6197 C.3     1  UNL1        0.2447
     39 C          -3.6155    3.9344   19.7963 C.ar    1  UNL1        0.0714
     40 C          -3.6735    3.8824   18.2984 C.ar    1  UNL1        0.1053
     41 N          -5.0537    3.4486   17.9026 N.ar    1  UNL1       -0.2350
     42 C          -5.8489    3.2323   19.1559 C.ar    1  UNL1        0.1343
     43 S          -4.9600    3.5326   20.3263 S.2     1  UNL1       -0.0652
     44 C           1.2252    0.9565   18.5006 C.3     1  UNL1        0.0460
     45 C           2.6991    0.7983   18.2706 C.ar    1  UNL1       -0.0205
     46 C           3.2127   -0.3597   17.4673 C.ar    1  UNL1       -0.0042
     47 C           4.6865   -0.5179   17.2373 C.ar    1  UNL1       -0.0003
     48 C           5.6466    0.4819   17.8106 C.ar    1  UNL1       -0.0000
     49 C           5.1330    1.6398   18.6139 C.ar    1  UNL1       -0.0003
     50 C           3.6592    1.7980   18.8439 C.ar    1  UNL1       -0.0042
     51 C           4.3499   -0.9010   21.2454 C.3     1  UNL1        0.0459
     52 C           4.4881   -2.2013   20.5106 C.ar    1  UNL1       -0.0205
     53 C           5.8225   -2.8822   20.4353 C.ar    1  UNL1       -0.0042
     54 C           5.9606   -4.1825   19.7005 C.ar    1  UNL1       -0.0003
     55 C           4.7643   -4.8020   19.0408 C.ar    1  UNL1       -0.0000
     56 C           3.4299   -4.1211   19.1161 C.ar    1  UNL1       -0.0003
     57 C           3.2918   -2.8207   19.8510 C.ar    1  UNL1       -0.0042
@<TRIPOS>BOND
     1    19    20    1
     2    20    21    1
     3    20    14    1
     4    14    15   ar
     5    15    16   ar
     6    16    13    1
     7    13     7    1
     8     7     8    1
     9     7     9   am
    10     9    10    2
    11     9    11   am
    12    11     6    1
    13     6    22    1
    14    22    23    1
    15    23    24    1
    16    24    25    1
    17    25    26    1
    18    26    27    1
    19    27    28    1
    20    28    29    1
    21     6     2    1
    22     2     3    2
    23     2     4   am
    24     4     1    1
    25     1    30    1
    26    30    31    1
    27    32    31    1
    28    32    44    1
    29    44    45    1
    30    45    46   ar
    31    46    47   ar
    32    47    48   ar
    33    48    49   ar
    34    49    50   ar
    35    32    33    1
    36    33    34   am
    37    34    35    2
    38    34    37    1
    39    37    38    1
    40    38    39    1
    41    39    40   ar
    42    40    41   ar
    43    41    42   ar
    44    42    43   ar
    45     1    51    1
    46    51    52    1
    47    52    53   ar
    48    53    54   ar
    49    54    55   ar
    50    55    56   ar
    51    56    57   ar
    52    16    17   ar
    53    17    18   ar
    54    18    14   ar
    55    29    24    1
    56    50    45   ar
    57    43    39   ar
    58    57    52   ar
    59    11    12    1
    60     4     5    1
    61    33    36    1
@<TRIPOS>MOLECULE
*****
 57 61 0 0 0
SMALL
GASTEIGER

@<TRIPOS>ATOM
      1 C           3.1829   -0.5315   22.7093 C.3     1  UNL1        0.0760
      2 C           4.0096   -0.2366   25.1546 C.2     1  UNL1        0.2404
      3 O           4.2516    1.2211   24.8971 O.2     1  UNL1       -0.2733
      4 N           3.4753   -1.1129   24.0608 N.am    1  UNL1       -0.3043
      5 H           3.3165   -2.0697   24.2299 H       1  UNL1        0.1494
      6 C           4.3019   -0.8181   26.5061 C.3     1  UNL1        0.1511
      7 N           7.1872   -3.5065   26.0619 N.am    1  UNL1       -0.2567
      8 C           8.5213   -3.6373   25.3888 C.3     1  UNL1        0.1168
      9 C           6.4116   -2.2277   25.9474 C.2     1  UNL1        0.3046
     10 O           6.9701   -1.0797   25.1599 O.2     1  UNL1       -0.2526
     11 N           5.0776   -2.0969   26.6205 N.am    1  UNL1       -0.2824
     12 H           4.7110   -2.8504   27.1374 H       1  UNL1        0.1514
     13 C           6.6288   -4.6545   26.8494 C.3     1  UNL1        0.1413
     14 C           6.7975   -3.9660   30.6656 C.ar    1  UNL1        0.0875
     15 N           6.5773   -3.4964   29.2581 N.ar    1  UNL1       -0.2453
     16 C           6.7575   -4.6720   28.3438 C.ar    1  UNL1        0.0858
     17 C           7.0890   -5.8679   29.1863 C.ar    1  UNL1        0.0530
     18 S           7.1137   -5.4316   30.6212 S.2     1  UNL1       -0.0705
     19 C           7.9694   -2.5877   32.5302 C.3     1  UNL1        0.0069
     20 C           6.7157   -3.1187   31.9006 C.3     1  UNL1        0.0465
     21 C           5.3803   -2.8023   32.5061 C.3     1  UNL1        0.0069
     22 C           3.8187   -0.1208   27.7431 C.3     1  UNL1        0.0463
     23 C           2.5643   -0.5833   28.4232 C.3     1  UNL1        0.0745
     24 N           1.2694    0.1325   28.1759 N.3     1  UNL1       -0.2684
     25 C           0.0416   -0.2503   28.9479 C.3     1  UNL1        0.1046
     26 C          -1.2532    0.4655   28.7006 C.3     1  UNL1        0.1595
     27 O          -1.3202    1.5640   27.6813 O.3     1  UNL1       -0.3508
     28 C          -0.0923    1.9467   26.9094 C.3     1  UNL1        0.1595
     29 C           1.2024    1.2310   27.1567 C.3     1  UNL1        0.1046
     30 C           1.8211    0.0212   22.4092 C.3     1  UNL1        0.0216
     31 C           1.4270    0.3163   20.9924 C.3     1  UNL1        0.0217
     32 C           1.4343    1.7299   20.4907 C.3     1  UNL1        0.0792
     33 N           0.9710    2.8443   21.3816 N.am    1  UNL1       -0.2720
     34 C          -0.4954    3.1185   21.5388 C.2     1  UNL1        0.4019
     35 O          -1.4984    2.2785   20.8052 O.2     1  UNL1       -0.2264
     36 H           1.6293    3.3956   21.8631 H       1  UNL1        0.1527
     37 O          -0.9586    4.2328   22.4297 O.3     1  UNL1       -0.4291
     38 C          -1.3079    3.9527   23.8613 C.3     1  UNL1        0.2447
     39 C          -2.7449    3.8218   24.2709 C.ar    1  UNL1        0.0714
     40 C          -3.2583    3.7603   25.6790 C.ar    1  UNL1        0.1053
     41 N          -4.7515    3.6300   25.6228 N.ar    1  UNL1       -0.2350
     42 C          -5.1611    3.6110   24.1799 C.ar    1  UNL1        0.1343
     43 S          -3.9210    3.7296   23.3445 S.2     1  UNL1       -0.0652
     44 C           1.9047    2.0292   19.0982 C.3     1  UNL1        0.0460
     45 C           3.0457    1.2537   18.5091 C.ar    1  UNL1       -0.0205
     46 C           2.7733    0.0540   17.6510 C.ar    1  UNL1       -0.0042
     47 C           3.9142   -0.7214   17.0620 C.ar    1  UNL1       -0.0003
     48 C           5.3275   -0.2970   17.3310 C.ar    1  UNL1       -0.0000
     49 C           5.5999    0.9027   18.1891 C.ar    1  UNL1       -0.0003
     50 C           4.4590    1.6781   18.7782 C.ar    1  UNL1       -0.0042
     51 C           4.2524   -0.5027   21.6579 C.3     1  UNL1        0.0459
     52 C           4.4868   -1.7059   20.7934 C.ar    1  UNL1       -0.0205
     53 C           3.3213   -2.4534   20.2164 C.ar    1  UNL1       -0.0042
     54 C           3.5557   -3.6567   19.3520 C.ar    1  UNL1       -0.0003
     55 C           4.9556   -4.1124   19.0645 C.ar    1  UNL1       -0.0000
     56 C           6.1211   -3.3649   19.6415 C.ar    1  UNL1       -0.0003
     57 C           5.8866   -2.1616   20.5060 C.ar    1  UNL1       -0.0042
@<TRIPOS>BOND
     1    19    20    1
     2    20    21    1
     3    20    14    1
     4    14    15   ar
     5    15    16   ar
     6    16    13    1
     7    13     7    1
     8     7     8    1
     9     7     9   am
    10     9    10    2
    11     9    11   am
    12    11     6    1
    13     6    22    1
    14    22    23    1
    15    23    24    1
    16    24    25    1
    17    25    26    1
    18    26    27    1
    19    27    28    1
    20    28    29    1
    21     6     2    1
    22     2     3    2
    23     2     4   am
    24     4     1    1
    25     1    30    1
    26    30    31    1
    27    32    31    1
    28    32    44    1
    29    44    45    1
    30    45    46   ar
    31    46    47   ar
    32    47    48   ar
    33    48    49   ar
    34    49    50   ar
    35    32    33    1
    36    33    34   am
    37    34    35    2
    38    34    37    1
    39    37    38    1
    40    38    39    1
    41    39    40   ar
    42    40    41   ar
    43    41    42   ar
    44    42    43   ar
    45     1    51    1
    46    51    52    1
    47    52    53   ar
    48    53    54   ar
    49    54    55   ar
    50    55    56   ar
    51    56    57   ar
    52    16    17   ar
    53    17    18   ar
    54    18    14   ar
    55    29    24    1
    56    50    45   ar
    57    43    39   ar
    58    57    52   ar
    59    11    12    1
    60     4     5    1
    61    33    36    1
@<TRIPOS>MOLECULE
*****
 57 61 0 0 0
SMALL
GASTEIGER

@<TRIPOS>ATOM
      1 C           4.4994   -1.5288   23.4494 C.3     1  UNL1        0.0760
      2 C           5.3024   -1.4605   25.9193 C.2     1  UNL1        0.2404
      3 O           5.3980    0.0347   25.8469 O.2     1  UNL1       -0.2733
      4 N           4.8531   -2.2423   24.7206 N.am    1  UNL1       -0.3043
      5 H           4.7904   -3.2236   24.7681 H       1  UNL1        0.1494
      6 C           5.6561   -2.1740   27.1904 C.3     1  UNL1        0.1511
      7 N           5.2574   -0.3693   30.7024 N.am    1  UNL1       -0.2567
      8 C           6.0409    0.5331   31.6089 C.3     1  UNL1        0.1168
      9 C           5.8485   -0.8205   29.3997 C.2     1  UNL1        0.3046
     10 O           7.2230   -0.3692   29.0034 O.2     1  UNL1       -0.2526
     11 N           5.0651   -1.7229   28.4932 N.am    1  UNL1       -0.2824
     12 H           4.1629   -2.0191   28.7532 H       1  UNL1        0.1514
     13 C           3.8829   -0.8206   31.0986 C.3     1  UNL1        0.1413
     14 C           0.6147    0.6002   29.5606 C.ar    1  UNL1        0.0875
     15 N           1.6234   -0.5004   29.7068 N.ar    1  UNL1       -0.2453
     16 C           2.6812   -0.0355   30.6634 C.ar    1  UNL1        0.0858
     17 C           2.3263    1.3523   31.1083 C.ar    1  UNL1        0.0530
     18 S           1.0491    1.7452   30.4268 S.2     1  UNL1       -0.0705
     19 C          -0.8585    1.6494   27.6955 C.3     1  UNL1        0.0069
     20 C          -0.6129    0.5623   28.6994 C.3     1  UNL1        0.0465
     21 C          -1.5948   -0.5626   28.8421 C.3     1  UNL1        0.0069
     22 C           6.6010   -3.3387   27.1588 C.3     1  UNL1        0.0463
     23 C           6.4333   -4.4671   28.1328 C.3     1  UNL1        0.0745
     24 N           7.0590   -5.8008   27.8504 N.3     1  UNL1       -0.2684
     25 C           6.7689   -6.5070   26.5593 C.3     1  UNL1        0.1046
     26 C           7.3945   -7.8407   26.2769 C.3     1  UNL1        0.1595
     27 O           8.3103   -8.4682   27.2857 O.3     1  UNL1       -0.3508
     28 C           8.6004   -7.7620   28.5768 C.3     1  UNL1        0.1595
     29 C           7.9748   -6.4283   28.8592 C.3     1  UNL1        0.1046
     30 C           3.1548   -0.8803   23.3024 C.3     1  UNL1        0.0216
     31 C           3.0549    0.5414   22.8348 C.3     1  UNL1        0.0217
     32 C           2.3269    0.8633   21.5634 C.3     1  UNL1        0.0792
     33 N           1.5650    2.1496   21.4405 N.am    1  UNL1       -0.2720
     34 C           0.1311    2.1328   21.0002 C.2     1  UNL1        0.4019
     35 O          -0.5408    0.8298   20.6828 O.2     1  UNL1       -0.2264
     36 H           2.0060    3.0048   21.6489 H       1  UNL1        0.1527
     37 O          -0.6308    3.4190   20.8774 O.3     1  UNL1       -0.4291
     38 C          -2.0160    3.5271   21.4426 C.3     1  UNL1        0.2447
     39 C          -3.2018    3.5422   20.5241 C.ar    1  UNL1        0.0714
     40 C          -3.1729    3.8268   19.0517 C.ar    1  UNL1        0.1053
     41 N          -4.5780    3.7359   18.5343 N.ar    1  UNL1       -0.2350
     42 C          -5.4752    3.3950   19.6871 C.ar    1  UNL1        0.1343
     43 S          -4.6246    3.2753   20.9168 S.2     1  UNL1       -0.0652
     44 C           2.3608   -0.1009   20.4149 C.3     1  UNL1        0.0460
     45 C           3.3708    0.0726   19.3195 C.ar    1  UNL1       -0.0205
     46 C           3.2215   -0.6867   18.0345 C.ar    1  UNL1       -0.0042
     47 C           4.2314   -0.5131   16.9392 C.ar    1  UNL1       -0.0003
     48 C           5.3907    0.4197   17.1287 C.ar    1  UNL1       -0.0000
     49 C           5.5400    1.1790   18.4137 C.ar    1  UNL1       -0.0003
     50 C           4.5300    1.0055   19.5090 C.ar    1  UNL1       -0.0042
     51 C           5.4903   -1.4638   22.3251 C.3     1  UNL1        0.0459
     52 C           5.2971   -2.3146   21.1050 C.ar    1  UNL1       -0.0205
     53 C           6.2468   -2.1961   19.9500 C.ar    1  UNL1       -0.0042
     54 C           6.0537   -3.0470   18.7299 C.ar    1  UNL1       -0.0003
     55 C           4.9108   -4.0164   18.6648 C.ar    1  UNL1       -0.0000
     56 C           3.9611   -4.1349   19.8198 C.ar    1  UNL1       -0.0003
     57 C           4.1543   -3.2840   21.0399 C.ar    1  UNL1       -0.0042
@<TRIPOS>BOND
     1    19    20    1
     2    20    21    1
     3    20    14    1
     4    14    15   ar
     5    15    16   ar
     6    16    13    1
     7    13     7    1
     8     7     8    1
     9     7     9   am
    10     9    10    2
    11     9    11   am
    12    11     6    1
    13     6    22    1
    14    22    23    1
    15    23    24    1
    16    24    25    1
    17    25    26    1
    18    26    27    1
    19    27    28    1
    20    28    29    1
    21     6     2    1
    22     2     3    2
    23     2     4   am
    24     4     1    1
    25     1    30    1
    26    30    31    1
    27    32    31    1
    28    32    44    1
    29    44    45    1
    30    45    46   ar
    31    46    47   ar
    32    47    48   ar
    33    48    49   ar
    34    49    50   ar
    35    32    33    1
    36    33    34   am
    37    34    35    2
    38    34    37    1
    39    37    38    1
    40    38    39    1
    41    39    40   ar
    42    40    41   ar
    43    41    42   ar
    44    42    43   ar
    45     1    51    1
    46    51    52    1
    47    52    53   ar
    48    53    54   ar
    49    54    55   ar
    50    55    56   ar
    51    56    57   ar
    52    16    17   ar
    53    17    18   ar
    54    18    14   ar
    55    29    24    1
    56    50    45   ar
    57    43    39   ar
    58    57    52   ar
    59    11    12    1
    60     4     5    1
    61    33    36    1
@<TRIPOS>MOLECULE
*****
 57 61 0 0 0
SMALL
GASTEIGER

@<TRIPOS>ATOM
      1 C           3.8953   -0.5640   21.9822 C.3     1  UNL1        0.0760
      2 C           4.7941   -2.1580   23.8266 C.2     1  UNL1        0.2404
      3 O           4.2230   -3.3329   23.0895 O.2     1  UNL1       -0.2733
      4 N           4.6303   -0.7736   23.2730 N.am    1  UNL1       -0.3043
      5 H           5.0052   -0.0024   23.7568 H       1  UNL1        0.1494
      6 C           5.5291   -2.3675   25.1172 C.3     1  UNL1        0.1511
      7 N           5.4798    0.6418   27.7041 N.am    1  UNL1       -0.2567
      8 C           6.1137    1.9887   27.8889 C.3     1  UNL1        0.1168
      9 C           5.8214   -0.1894   26.5030 C.2     1  UNL1        0.3046
     10 O           6.7967    0.3262   25.4868 O.2     1  UNL1       -0.2526
     11 N           5.1876   -1.5363   26.3183 N.am    1  UNL1       -0.2824
     12 H           4.5474   -1.8747   26.9852 H       1  UNL1        0.1514
     13 C           4.5045    0.1262   28.7203 C.3     1  UNL1        0.1413
     14 C           0.8992    0.9091   27.5142 C.ar    1  UNL1        0.0875
     15 N           2.3868    1.0188   27.3551 N.ar    1  UNL1       -0.2453
     16 C           3.0301    0.2746   28.4876 C.ar    1  UNL1        0.0858
     17 C           1.9402   -0.2949   29.3465 C.ar    1  UNL1        0.0530
     18 S           0.6232    0.0972   28.7449 S.2     1  UNL1       -0.0705
     19 C          -0.0058    1.3393   25.1172 C.3     1  UNL1        0.0069
     20 C          -0.1313    1.5064   26.6025 C.3     1  UNL1        0.0465
     21 C          -1.2874    2.2709   27.1762 C.3     1  UNL1        0.0069
     22 C           6.6056   -3.4082   25.2069 C.3     1  UNL1        0.0463
     23 C           7.6750   -3.2930   26.2525 C.3     1  UNL1        0.0745
     24 N           7.3784   -3.6709   27.6735 N.3     1  UNL1       -0.2684
     25 C           7.4921   -2.6449   28.7618 C.3     1  UNL1        0.1046
     26 C           7.1955   -3.0229   30.1828 C.3     1  UNL1        0.1595
     27 O           6.7852   -4.4268   30.5154 O.3     1  UNL1       -0.3508
     28 C           6.6715   -5.4528   29.4271 C.3     1  UNL1        0.1595
     29 C           6.9681   -5.0748   28.0062 C.3     1  UNL1        0.1046
     30 C           2.4776   -0.0745   21.9974 C.3     1  UNL1        0.0216
     31 C           1.5464   -0.4386   20.8792 C.3     1  UNL1        0.0217
     32 C           0.8829    0.6396   20.0746 C.3     1  UNL1        0.0792
     33 N          -0.1174    1.5507   20.7222 N.am    1  UNL1       -0.2720
     34 C           0.3131    2.8922   21.2370 C.2     1  UNL1        0.4019
     35 O           1.7439    3.3226   21.1043 O.2     1  UNL1       -0.2264
     36 H          -1.0565    1.2682   20.8093 H       1  UNL1        0.1527
     37 O          -0.6872    3.8033   21.8846 O.3     1  UNL1       -0.4291
     38 C          -2.0677    3.3038   22.1921 C.3     1  UNL1        0.2447
     39 C          -3.1564    3.4299   21.1680 C.ar    1  UNL1        0.0714
     40 C          -2.9640    3.7042   19.7059 C.ar    1  UNL1        0.1053
     41 N          -4.3173    3.7477   19.0604 N.ar    1  UNL1       -0.2350
     42 C          -5.3461    3.5002   20.1235 C.ar    1  UNL1        0.1343
     43 S          -4.6286    3.3039   21.4261 S.2     1  UNL1       -0.0652
     44 C           1.2196    0.8066   18.6225 C.3     1  UNL1        0.0460
     45 C           2.6518    0.7831   18.1772 C.ar    1  UNL1       -0.0205
     46 C           3.5689    1.9130   18.5407 C.ar    1  UNL1       -0.0042
     47 C           5.0011    1.8894   18.0954 C.ar    1  UNL1       -0.0003
     48 C           5.5161    0.7360   17.2865 C.ar    1  UNL1       -0.0000
     49 C           4.5990   -0.3939   16.9230 C.ar    1  UNL1       -0.0003
     50 C           3.1669   -0.3703   17.3683 C.ar    1  UNL1       -0.0042
     51 C           4.5781   -0.8441   20.6764 C.3     1  UNL1        0.0459
     52 C           4.5881   -2.2365   20.1187 C.ar    1  UNL1       -0.0205
     53 C           3.3050   -2.8781   19.6804 C.ar    1  UNL1       -0.0042
     54 C           3.3149   -4.2705   19.1227 C.ar    1  UNL1       -0.0003
     55 C           4.6080   -5.0214   19.0033 C.ar    1  UNL1       -0.0000
     56 C           5.8910   -4.3799   19.4416 C.ar    1  UNL1       -0.0003
     57 C           5.8811   -2.9874   19.9993 C.ar    1  UNL1       -0.0042
@<TRIPOS>BOND
     1    19    20    1
     2    20    21    1
     3    20    14    1
     4    14    15   ar
     5    15    16   ar
     6    16    13    1
     7    13     7    1
     8     7     8    1
     9     7     9   am
    10     9    10    2
    11     9    11   am
    12    11     6    1
    13     6    22    1
    14    22    23    1
    15    23    24    1
    16    24    25    1
    17    25    26    1
    18    26    27    1
    19    27    28    1
    20    28    29    1
    21     6     2    1
    22     2     3    2
    23     2     4   am
    24     4     1    1
    25     1    30    1
    26    30    31    1
    27    32    31    1
    28    32    44    1
    29    44    45    1
    30    45    46   ar
    31    46    47   ar
    32    47    48   ar
    33    48    49   ar
    34    49    50   ar
    35    32    33    1
    36    33    34   am
    37    34    35    2
    38    34    37    1
    39    37    38    1
    40    38    39    1
    41    39    40   ar
    42    40    41   ar
    43    41    42   ar
    44    42    43   ar
    45     1    51    1
    46    51    52    1
    47    52    53   ar
    48    53    54   ar
    49    54    55   ar
    50    55    56   ar
    51    56    57   ar
    52    16    17   ar
    53    17    18   ar
    54    18    14   ar
    55    29    24    1
    56    50    45   ar
    57    43    39   ar
    58    57    52   ar
    59    11    12    1
    60     4     5    1
    61    33    36    1
@<TRIPOS>MOLECULE
*****
 57 61 0 0 0
SMALL
GASTEIGER

@<TRIPOS>ATOM
      1 C           3.6226   -1.0289   21.6268 C.3     1  UNL1        0.0760
      2 C           4.8821   -2.2537   23.5409 C.2     1  UNL1        0.2404
      3 O           4.3816   -3.5711   23.0272 O.2     1  UNL1       -0.2733
      4 N           4.5026   -0.9826   22.8407 N.am    1  UNL1       -0.3043
      5 H           4.8311   -0.1179   23.1778 H       1  UNL1        0.1494
      6 C           5.7621   -2.2073   24.7547 C.3     1  UNL1        0.1511
      7 N           7.2179   -5.6774   26.0153 N.am    1  UNL1       -0.2567
      8 C           8.2656   -6.6768   25.6238 C.3     1  UNL1        0.1168
      9 C           7.0138   -4.4421   25.1892 C.2     1  UNL1        0.3046
     10 O           7.8575   -4.2062   23.9716 O.2     1  UNL1       -0.2526
     11 N           5.9661   -3.4426   25.5808 N.am    1  UNL1       -0.2824
     12 H           5.4124   -3.5974   26.3799 H       1  UNL1        0.1514
     13 C           6.3742   -5.9132   27.2329 C.3     1  UNL1        0.1413
     14 C           7.3080   -4.4493   30.7043 C.ar    1  UNL1        0.0875
     15 N           6.5332   -4.3866   29.4214 N.ar    1  UNL1       -0.2453
     16 C           6.9107   -5.5791   28.5932 C.ar    1  UNL1        0.0858
     17 C           7.9187   -6.3786   29.3643 C.ar    1  UNL1        0.0530
     18 S           8.1643   -5.6804   30.6690 S.2     1  UNL1       -0.0705
     19 C           5.9116   -3.0856   32.4189 C.3     1  UNL1        0.0069
     20 C           7.2387   -3.4554   31.8256 C.3     1  UNL1        0.0465
     21 C           8.4964   -2.8312   32.3534 C.3     1  UNL1        0.0069
     22 C           6.4380   -0.9256   25.1425 C.3     1  UNL1        0.0463
     23 C           5.7380    0.0491   26.0425 C.3     1  UNL1        0.0745
     24 N           4.5150    0.7710   25.5594 N.3     1  UNL1       -0.2684
     25 C           4.6558    2.0129   24.7301 C.3     1  UNL1        0.1046
     26 C           3.4329    2.7348   24.2471 C.3     1  UNL1        0.1595
     27 O           2.0692    2.2147   24.5935 O.3     1  UNL1       -0.3508
     28 C           1.9285    0.9729   25.4228 C.3     1  UNL1        0.1595
     29 C           3.1514    0.2510   25.9058 C.3     1  UNL1        0.1046
     30 C           2.3206   -0.2842   21.6155 C.3     1  UNL1        0.0216
     31 C           1.2944   -0.5838   20.5633 C.3     1  UNL1        0.0217
     32 C           0.6191    0.5391   19.8330 C.3     1  UNL1        0.0792
     33 N          -0.6257    1.1585   20.3958 N.am    1  UNL1       -0.2720
     34 C          -0.5284    2.3637   21.2836 C.2     1  UNL1        0.4019
     35 O           0.8137    2.9494   21.6086 O.2     1  UNL1       -0.2264
     36 H          -1.5066    0.7740   20.1825 H       1  UNL1        0.1527
     37 O          -1.7732    2.9831   21.8464 O.3     1  UNL1       -0.4291
     38 C          -2.4296    4.1280   21.1335 C.3     1  UNL1        0.2447
     39 C          -3.5649    3.8707   20.1875 C.ar    1  UNL1        0.0714
     40 C          -4.9101    3.3176   20.5543 C.ar    1  UNL1        0.1053
     41 N          -5.7309    3.2264   19.3021 N.ar    1  UNL1       -0.2350
     42 C          -4.8929    3.7231   18.1614 C.ar    1  UNL1        0.1343
     43 S          -3.5543    4.1212   18.7086 S.2     1  UNL1       -0.0652
     44 C           1.1887    1.0425   18.5399 C.3     1  UNL1        0.0460
     45 C           1.9480    2.3357   18.5077 C.ar    1  UNL1       -0.0205
     46 C           3.4043    2.3596   18.8662 C.ar    1  UNL1       -0.0042
     47 C           4.1635    3.6528   18.8341 C.ar    1  UNL1       -0.0003
     48 C           3.4664    4.9222   18.4434 C.ar    1  UNL1       -0.0000
     49 C           2.0101    4.8984   18.0849 C.ar    1  UNL1       -0.0003
     50 C           1.2509    3.6052   18.1170 C.ar    1  UNL1       -0.0042
     51 C           4.0446   -1.8199   20.4243 C.3     1  UNL1        0.0459
     52 C           4.6138   -1.1183   19.2269 C.ar    1  UNL1       -0.0205
     53 C           5.8928   -0.3441   19.3491 C.ar    1  UNL1       -0.0042
     54 C           6.4621    0.3576   18.1518 C.ar    1  UNL1       -0.0003
     55 C           5.7523    0.2851   16.8322 C.ar    1  UNL1       -0.0000
     56 C           4.4734   -0.4891   16.7101 C.ar    1  UNL1       -0.0003
     57 C           3.9041   -1.1908   17.9075 C.ar    1  UNL1       -0.0042
@<TRIPOS>BOND
     1    19    20    1
     2    20    21    1
     3    20    14    1
     4    14    15   ar
     5    15    16   ar
     6    16    13    1
     7    13     7    1
     8     7     8    1
     9     7     9   am
    10     9    10    2
    11     9    11   am
    12    11     6    1
    13     6    22    1
    14    22    23    1
    15    23    24    1
    16    24    25    1
    17    25    26    1
    18    26    27    1
    19    27    28    1
    20    28    29    1
    21     6     2    1
    22     2     3    2
    23     2     4   am
    24     4     1    1
    25     1    30    1
    26    30    31    1
    27    32    31    1
    28    32    44    1
    29    44    45    1
    30    45    46   ar
    31    46    47   ar
    32    47    48   ar
    33    48    49   ar
    34    49    50   ar
    35    32    33    1
    36    33    34   am
    37    34    35    2
    38    34    37    1
    39    37    38    1
    40    38    39    1
    41    39    40   ar
    42    40    41   ar
    43    41    42   ar
    44    42    43   ar
    45     1    51    1
    46    51    52    1
    47    52    53   ar
    48    53    54   ar
    49    54    55   ar
    50    55    56   ar
    51    56    57   ar
    52    16    17   ar
    53    17    18   ar
    54    18    14   ar
    55    29    24    1
    56    50    45   ar
    57    43    39   ar
    58    57    52   ar
    59    11    12    1
    60     4     5    1
    61    33    36    1
@<TRIPOS>MOLECULE
*****
 57 61 0 0 0
SMALL
GASTEIGER

@<TRIPOS>ATOM
      1 C           2.7514   -0.3518   22.9693 C.3     1  UNL1        0.0760
      2 C           1.7575    1.9773   23.5505 C.2     1  UNL1        0.2404
      3 O           2.9519    2.6413   22.9320 O.2     1  UNL1       -0.2733
      4 N           1.6573    0.4808   23.5692 N.am    1  UNL1       -0.3043
      5 H           0.8733    0.0449   23.9751 H       1  UNL1        0.1494
      6 C           0.6634    2.8097   24.1504 C.3     1  UNL1        0.1511
      7 N          -1.8438    4.4086   21.5222 N.am    1  UNL1       -0.2567
      8 C          -1.8491    5.4658   20.4582 C.3     1  UNL1        0.1168
      9 C          -0.5929    4.1378   22.3043 C.2     1  UNL1        0.3046
     10 O           0.6529    4.9243   22.0224 O.2     1  UNL1       -0.2526
     11 N          -0.5876    3.0805   23.3683 N.am    1  UNL1       -0.2824
     12 H          -1.4052    2.5643   23.5533 H       1  UNL1        0.1514
     13 C          -3.0896    3.6221   21.8040 C.3     1  UNL1        0.1413
     14 C          -4.6264    4.7599   25.1818 C.ar    1  UNL1        0.0875
     15 N          -3.4557    4.6285   24.2532 N.ar    1  UNL1       -0.2453
     16 C          -3.9310    3.9532   23.0009 C.ar    1  UNL1        0.0858
     17 C          -5.3953    3.6673   23.1556 C.ar    1  UNL1        0.0530
     18 S          -5.8251    4.1658   24.5035 S.2     1  UNL1       -0.0705
     19 C          -3.3040    5.5137   27.2872 C.3     1  UNL1        0.0069
     20 C          -4.6024    5.3770   26.5488 C.3     1  UNL1        0.0465
     21 C          -5.8769    5.8573   27.1773 C.3     1  UNL1        0.0069
     22 C           0.8202    3.3715   25.5324 C.3     1  UNL1        0.0463
     23 C           1.6642    2.6527   26.5428 C.3     1  UNL1        0.0745
     24 N           1.0392    1.6450   27.4616 N.3     1  UNL1       -0.2684
     25 C           1.9071    0.7647   28.3110 C.3     1  UNL1        0.1046
     26 C           1.2820   -0.2429   29.2297 C.3     1  UNL1        0.1595
     27 O          -0.2110   -0.3702   29.2989 O.3     1  UNL1       -0.3508
     28 C          -1.0789    0.5102   28.4494 C.3     1  UNL1        0.1595
     29 C          -0.4538    1.5178   27.5307 C.3     1  UNL1        0.1046
     30 C           4.0189   -0.5894   23.7355 C.3     1  UNL1        0.0216
     31 C           4.3191   -1.9527   24.2843 C.3     1  UNL1        0.0217
     32 C           5.4879   -2.7322   23.7584 C.3     1  UNL1        0.0792
     33 N           5.9923   -3.9272   24.5117 N.am    1  UNL1       -0.2720
     34 C           6.8967   -3.7417   25.6939 C.2     1  UNL1        0.4019
     35 O           7.2966   -2.3611   26.1229 O.2     1  UNL1       -0.2264
     36 H           5.7298   -4.8334   24.2301 H       1  UNL1        0.1527
     37 O           7.4011   -4.9367   26.4472 O.3     1  UNL1       -0.4291
     38 C           8.2868   -4.7503   27.6433 C.3     1  UNL1        0.2447
     39 C           7.6947   -4.7454   29.0215 C.ar    1  UNL1        0.0714
     40 C           7.0364   -3.5774   29.6941 C.ar    1  UNL1        0.1053
     41 N           6.5918   -4.0176   31.0574 N.ar    1  UNL1       -0.2350
     42 C           6.9753   -5.4578   31.2273 C.ar    1  UNL1        0.1343
     43 S           7.6569   -5.9075   29.9691 S.2     1  UNL1       -0.0652
     44 C           6.1521   -2.3167   22.4793 C.3     1  UNL1        0.0460
     45 C           5.6588   -2.8545   21.1688 C.ar    1  UNL1       -0.0205
     46 C           4.5496   -3.8639   21.1422 C.ar    1  UNL1       -0.0042
     47 C           4.0563   -4.4017   19.8317 C.ar    1  UNL1       -0.0003
     48 C           4.6722   -3.9301   18.5479 C.ar    1  UNL1       -0.0000
     49 C           5.7814   -2.9207   18.5745 C.ar    1  UNL1       -0.0003
     50 C           6.2747   -2.3829   19.8850 C.ar    1  UNL1       -0.0042
     51 C           2.5780   -0.9467   21.6033 C.3     1  UNL1        0.0459
     52 C           3.2545   -0.3193   20.4206 C.ar    1  UNL1       -0.0205
     53 C           2.7961   -0.6508   19.0314 C.ar    1  UNL1       -0.0042
     54 C           3.4726   -0.0234   17.8487 C.ar    1  UNL1       -0.0003
     55 C           4.6075    0.9355   18.0553 C.ar    1  UNL1       -0.0000
     56 C           5.0658    1.2670   19.4445 C.ar    1  UNL1       -0.0003
     57 C           4.3893    0.6395   20.6272 C.ar    1  UNL1       -0.0042
@<TRIPOS>BOND
     1    19    20    1
     2    20    21    1
     3    20    14    1
     4    14    15   ar
     5    15    16   ar
     6    16    13    1
     7    13     7    1
     8     7     8    1
     9     7     9   am
    10     9    10    2
    11     9    11   am
    12    11     6    1
    13     6    22    1
    14    22    23    1
    15    23    24    1
    16    24    25    1
    17    25    26    1
    18    26    27    1
    19    27    28    1
    20    28    29    1
    21     6     2    1
    22     2     3    2
    23     2     4   am
    24     4     1    1
    25     1    30    1
    26    30    31    1
    27    32    31    1
    28    32    44    1
    29    44    45    1
    30    45    46   ar
    31    46    47   ar
    32    47    48   ar
    33    48    49   ar
    34    49    50   ar
    35    32    33    1
    36    33    34   am
    37    34    35    2
    38    34    37    1
    39    37    38    1
    40    38    39    1
    41    39    40   ar
    42    40    41   ar
    43    41    42   ar
    44    42    43   ar
    45     1    51    1
    46    51    52    1
    47    52    53   ar
    48    53    54   ar
    49    54    55   ar
    50    55    56   ar
    51    56    57   ar
    52    16    17   ar
    53    17    18   ar
    54    18    14   ar
    55    29    24    1
    56    50    45   ar
    57    43    39   ar
    58    57    52   ar
    59    11    12    1
    60     4     5    1
    61    33    36    1
@<TRIPOS>MOLECULE
*****
 57 61 0 0 0
SMALL
GASTEIGER

@<TRIPOS>ATOM
      1 C           3.8556   -1.0405   25.1626 C.3     1  UNL1        0.0760
      2 C           5.9466   -1.5617   23.7114 C.2     1  UNL1        0.2404
      3 O           6.5489   -0.2461   24.1068 O.2     1  UNL1       -0.2733
      4 N           4.6000   -1.9590   24.2393 N.am    1  UNL1       -0.3043
      5 H           4.2047   -2.8225   23.9798 H       1  UNL1        0.1494
      6 C           6.6910   -2.4801   22.7881 C.3     1  UNL1        0.1511
      7 N           4.6572   -3.7568   19.6284 N.am    1  UNL1       -0.2567
      8 C           3.5349   -4.6987   19.3072 C.3     1  UNL1        0.1168
      9 C           5.1129   -3.5894   21.0477 C.2     1  UNL1        0.3046
     10 O           4.4462   -4.3638   22.1457 O.2     1  UNL1       -0.2526
     11 N           6.2353   -2.6476   21.3689 N.am    1  UNL1       -0.2824
     12 H           6.6729   -2.1393   20.6481 H       1  UNL1        0.1514
     13 C           5.3239   -2.9825   18.5303 C.3     1  UNL1        0.1413
     14 C           3.6910    0.5269   18.2410 C.ar    1  UNL1        0.0875
     15 N           3.6549   -0.9013   18.6983 N.ar    1  UNL1       -0.2453
     16 C           4.9378   -1.5552   18.2779 C.ar    1  UNL1        0.0858
     17 C           5.7667   -0.5311   17.5608 C.ar    1  UNL1        0.0530
     18 S           4.9962    0.7556   17.5380 S.2     1  UNL1       -0.0705
     19 C           2.9578    3.0056   18.5017 C.3     1  UNL1        0.0069
     20 C           2.6114    1.5471   18.4500 C.3     1  UNL1        0.0465
     21 C           1.1855    1.1087   18.6072 C.3     1  UNL1        0.0069
     22 C           7.8910   -3.2311   23.2841 C.3     1  UNL1        0.0463
     23 C           7.9224   -4.7288   23.2086 C.3     1  UNL1        0.0745
     24 N           7.6623   -5.5475   24.4383 N.3     1  UNL1       -0.2684
     25 C           8.1478   -6.9647   24.5125 C.3     1  UNL1        0.1046
     26 C           7.8877   -7.7832   25.7422 C.3     1  UNL1        0.1595
     27 O           7.1419   -7.1845   26.8978 O.3     1  UNL1       -0.3508
     28 C           6.6563   -5.7673   26.8236 C.3     1  UNL1        0.1595
     29 C           6.9165   -4.9487   25.5939 C.3     1  UNL1        0.1046
     30 C           4.3529   -0.8174   26.5601 C.3     1  UNL1        0.0216
     31 C           3.5365   -1.2813   27.7297 C.3     1  UNL1        0.0217
     32 C           2.9555   -0.2797   28.6833 C.3     1  UNL1        0.0792
     33 N           3.8173    0.3277   29.7502 N.am    1  UNL1       -0.2720
     34 C           3.7325   -0.1767   31.1603 C.2     1  UNL1        0.4019
     35 O           2.7858   -1.2885   31.5035 O.2     1  UNL1       -0.2264
     36 H           4.4386    1.0574   29.5250 H       1  UNL1        0.1527
     37 O           4.5943    0.4306   32.2273 O.3     1  UNL1       -0.4291
     38 C           4.8066   -0.2945   33.5230 C.3     1  UNL1        0.2447
     39 C           4.4299    0.3598   34.8191 C.ar    1  UNL1        0.0714
     40 C           4.7322   -0.1640   36.1918 C.ar    1  UNL1        0.1053
     41 N           4.1739    0.8052   37.1912 N.ar    1  UNL1       -0.2350
     42 C           3.5266    1.9281   36.4362 C.ar    1  UNL1        0.1343
     43 S           3.6848    1.6528   34.9702 S.2     1  UNL1       -0.0652
     44 C           1.5127    0.1146   28.5699 C.3     1  UNL1        0.0460
     45 C           1.0969    1.1621   27.5800 C.ar    1  UNL1       -0.0205
     46 C          -0.1734    0.9950   26.8001 C.ar    1  UNL1       -0.0042
     47 C          -0.5891    2.0425   25.8103 C.ar    1  UNL1       -0.0003
     48 C           0.2656    3.2572   25.6003 C.ar    1  UNL1       -0.0000
     49 C           1.5359    3.4243   26.3801 C.ar    1  UNL1       -0.0003
     50 C           1.9516    2.3768   27.3700 C.ar    1  UNL1       -0.0042
     51 C           2.6139   -0.3453   24.6885 C.3     1  UNL1        0.0459
     52 C           2.7215    0.9101   23.8747 C.ar    1  UNL1       -0.0205
     53 C           3.8673    1.8522   24.0972 C.ar    1  UNL1       -0.0042
     54 C           3.9749    3.1076   23.2834 C.ar    1  UNL1       -0.0003
     55 C           2.9367    3.4209   22.2470 C.ar    1  UNL1       -0.0000
     56 C           1.7910    2.4788   22.0244 C.ar    1  UNL1       -0.0003
     57 C           1.6834    1.2233   22.8383 C.ar    1  UNL1       -0.0042
@<TRIPOS>BOND
     1    19    20    1
     2    20    21    1
     3    20    14    1
     4    14    15   ar
     5    15    16   ar
     6    16    13    1
     7    13     7    1
     8     7     8    1
     9     7     9   am
    10     9    10    2
    11     9    11   am
    12    11     6    1
    13     6    22    1
    14    22    23    1
    15    23    24    1
    16    24    25    1
    17    25    26    1
    18    26    27    1
    19    27    28    1
    20    28    29    1
    21     6     2    1
    22     2     3    2
    23     2     4   am
    24     4     1    1
    25     1    30    1
    26    30    31    1
    27    32    31    1
    28    32    44    1
    29    44    45    1
    30    45    46   ar
    31    46    47   ar
    32    47    48   ar
    33    48    49   ar
    34    49    50   ar
    35    32    33    1
    36    33    34   am
    37    34    35    2
    38    34    37    1
    39    37    38    1
    40    38    39    1
    41    39    40   ar
    42    40    41   ar
    43    41    42   ar
    44    42    43   ar
    45     1    51    1
    46    51    52    1
    47    52    53   ar
    48    53    54   ar
    49    54    55   ar
    50    55    56   ar
    51    56    57   ar
    52    16    17   ar
    53    17    18   ar
    54    18    14   ar
    55    29    24    1
    56    50    45   ar
    57    43    39   ar
    58    57    52   ar
    59    11    12    1
    60     4     5    1
    61    33    36    1
@<TRIPOS>MOLECULE
*****
 57 61 0 0 0
SMALL
GASTEIGER

@<TRIPOS>ATOM
      1 C           4.0079   -1.2183   24.7937 C.3     1  UNL1        0.0760
      2 C           5.6282   -1.8597   26.7207 C.2     1  UNL1        0.2404
      3 O           6.7879   -1.3575   25.9127 O.2     1  UNL1       -0.2733
      4 N           4.2382   -1.7901   26.1612 N.am    1  UNL1       -0.3043
      5 H           3.4771   -2.1198   26.6916 H       1  UNL1        0.1494
      6 C           5.8585   -2.4316   28.0881 C.3     1  UNL1        0.1511
      7 N           5.2106   -0.2725   31.3544 N.am    1  UNL1       -0.2567
      8 C           5.9438    0.6891   32.2419 C.3     1  UNL1        0.1168
      9 C           5.9012   -0.8712   30.1650 C.2     1  UNL1        0.3046
     10 O           7.3249   -0.5084   29.8631 O.2     1  UNL1       -0.2526
     11 N           5.1679   -1.8328   29.2775 N.am    1  UNL1       -0.2824
     12 H           4.2334   -2.0709   29.4756 H       1  UNL1        0.1514
     13 C           3.7868   -0.6353   31.6563 C.3     1  UNL1        0.1413
     14 C           0.7599    0.5975   29.5626 C.ar    1  UNL1        0.0875
     15 N           1.7126   -0.4846   29.9770 N.ar    1  UNL1       -0.2453
     16 C           2.6665    0.0964   30.9784 C.ar    1  UNL1        0.0858
     17 C           2.3034    1.5373   31.1827 C.ar    1  UNL1        0.0530
     18 S           1.1250    1.8470   30.3077 S.2     1  UNL1       -0.0705
     19 C          -0.4155    1.3437   27.3691 C.3     1  UNL1        0.0069
     20 C          -0.3611    0.4548   28.5761 C.3     1  UNL1        0.0465
     21 C          -1.4276   -0.5766   28.7967 C.3     1  UNL1        0.0069
     22 C           6.7793   -3.6022   28.2662 C.3     1  UNL1        0.0463
     23 C           6.2342   -4.9989   28.2216 C.3     1  UNL1        0.0745
     24 N           7.1206   -6.1373   27.8112 N.3     1  UNL1       -0.2684
     25 C           6.9481   -6.7742   26.4641 C.3     1  UNL1        0.1046
     26 C           7.8346   -7.9125   26.0538 C.3     1  UNL1        0.1595
     27 O           8.8934   -8.4140   26.9905 O.3     1  UNL1       -0.3508
     28 C           9.0658   -7.7771   28.3376 C.3     1  UNL1        0.1595
     29 C           8.1794   -6.6387   28.7479 C.3     1  UNL1        0.1046
     30 C           3.7576    0.2513   24.6278 C.3     1  UNL1        0.0216
     31 C           2.3537    0.7793   24.6424 C.3     1  UNL1        0.0217
     32 C           1.9477    1.8572   23.6814 C.3     1  UNL1        0.0792
     33 N           0.7249    2.6825   23.9530 N.am    1  UNL1       -0.2720
     34 C           0.8398    3.9598   24.7311 C.2     1  UNL1        0.4019
     35 O           2.1774    4.4118   25.2376 O.2     1  UNL1       -0.2264
     36 H          -0.1530    2.3859   23.6206 H       1  UNL1        0.1527
     37 O          -0.3829    4.7851   25.0027 O.3     1  UNL1       -0.4291
     38 C          -1.6233    4.5797   24.1847 C.3     1  UNL1        0.2447
     39 C          -2.9367    4.3277   24.8640 C.ar    1  UNL1        0.0714
     40 C          -3.1397    4.0949   26.3319 C.ar    1  UNL1        0.1053
     41 N          -4.6061    3.8876   26.5699 N.ar    1  UNL1       -0.2350
     42 C          -5.3094    3.9923   25.2492 C.ar    1  UNL1        0.1343
     43 S          -4.2776    4.2643   24.1949 S.2     1  UNL1       -0.0652
     44 C           2.7644    2.1098   22.4489 C.3     1  UNL1        0.0460
     45 C           2.3071    1.5761   21.1237 C.ar    1  UNL1       -0.0205
     46 C           1.3410    0.4300   21.0698 C.ar    1  UNL1       -0.0042
     47 C           0.8837   -0.1037   19.7446 C.ar    1  UNL1       -0.0003
     48 C           1.3926    0.5088   18.4734 C.ar    1  UNL1       -0.0000
     49 C           2.3588    1.6549   18.5274 C.ar    1  UNL1       -0.0003
     50 C           2.8160    2.1885   19.8525 C.ar    1  UNL1       -0.0042
     51 C           4.0278   -2.1161   23.5923 C.3     1  UNL1        0.0459
     52 C           4.4481   -1.5745   22.2581 C.ar    1  UNL1       -0.0205
     53 C           5.4730   -0.4818   22.1814 C.ar    1  UNL1       -0.0042
     54 C           5.8933    0.0598   20.8472 C.ar    1  UNL1       -0.0003
     55 C           5.2887   -0.4912   19.5898 C.ar    1  UNL1       -0.0000
     56 C           4.2639   -1.5838   19.6666 C.ar    1  UNL1       -0.0003
     57 C           3.8436   -2.1254   21.0008 C.ar    1  UNL1       -0.0042
@<TRIPOS>BOND
     1    19    20    1
     2    20    21    1
     3    20    14    1
     4    14    15   ar
     5    15    16   ar
     6    16    13    1
     7    13     7    1
     8     7     8    1
     9     7     9   am
    10     9    10    2
    11     9    11   am
    12    11     6    1
    13     6    22    1
    14    22    23    1
    15    23    24    1
    16    24    25    1
    17    25    26    1
    18    26    27    1
    19    27    28    1
    20    28    29    1
    21     6     2    1
    22     2     3    2
    23     2     4   am
    24     4     1    1
    25     1    30    1
    26    30    31    1
    27    32    31    1
    28    32    44    1
    29    44    45    1
    30    45    46   ar
    31    46    47   ar
    32    47    48   ar
    33    48    49   ar
    34    49    50   ar
    35    32    33    1
    36    33    34   am
    37    34    35    2
    38    34    37    1
    39    37    38    1
    40    38    39    1
    41    39    40   ar
    42    40    41   ar
    43    41    42   ar
    44    42    43   ar
    45     1    51    1
    46    51    52    1
    47    52    53   ar
    48    53    54   ar
    49    54    55   ar
    50    55    56   ar
    51    56    57   ar
    52    16    17   ar
    53    17    18   ar
    54    18    14   ar
    55    29    24    1
    56    50    45   ar
    57    43    39   ar
    58    57    52   ar
    59    11    12    1
    60     4     5    1
    61    33    36    1
@<TRIPOS>MOLECULE
*****
 57 61 0 0 0
SMALL
GASTEIGER

@<TRIPOS>ATOM
      1 C           3.0922   -0.2010   23.1959 C.3     1  UNL1        0.0760
      2 C           2.6923    2.2168   24.0589 C.2     1  UNL1        0.2404
      3 O           3.9757    2.6572   23.4196 O.2     1  UNL1       -0.2733
      4 N           2.2505    0.7877   23.9470 N.am    1  UNL1       -0.3043
      5 H           1.4081    0.4986   24.3666 H       1  UNL1        0.1494
      6 C           1.8506    3.2053   24.8100 C.3     1  UNL1        0.1511
      7 N          -1.7930    4.1735   23.5704 N.am    1  UNL1       -0.2567
      8 C          -3.2077    3.7008   23.7293 C.3     1  UNL1        0.1168
      9 C          -0.6785    3.4531   24.2697 C.2     1  UNL1        0.3046
     10 O          -0.9787    2.2600   25.1278 O.2     1  UNL1       -0.2526
     11 N           0.7361    3.9257   24.1108 N.am    1  UNL1       -0.2824
     12 H           0.9331    4.7088   23.5476 H       1  UNL1        0.1514
     13 C          -1.4929    5.3666   22.7123 C.3     1  UNL1        0.1413
     14 C           0.5358    4.2093   19.6121 C.ar    1  UNL1        0.0875
     15 N          -0.1066    3.9262   20.9378 N.ar    1  UNL1       -0.2453
     16 C          -0.7405    5.1951   21.4261 C.ar    1  UNL1        0.0858
     17 C          -0.4898    6.2623   20.4022 C.ar    1  UNL1        0.0530
     18 S           0.2990    5.6531   19.2812 S.2     1  UNL1       -0.0705
     19 C           2.6959    3.5088   18.3501 C.3     1  UNL1        0.0069
     20 C           1.2836    3.2220   18.7661 C.3     1  UNL1        0.0465
     21 C           0.6192    1.9477   18.3361 C.3     1  UNL1        0.0069
     22 C           2.1234    3.4735   26.2605 C.3     1  UNL1        0.0463
     23 C           3.0496    2.5771   27.0277 C.3     1  UNL1        0.0745
     24 N           2.5313    1.7790   28.1872 N.3     1  UNL1       -0.2684
     25 C           2.4471    0.2845   28.0911 C.3     1  UNL1        0.1046
     26 C           1.9289   -0.5136   29.2506 C.3     1  UNL1        0.1595
     27 O           1.4947    0.1829   30.5062 O.3     1  UNL1       -0.3508
     28 C           1.5789    1.6774   30.6023 C.3     1  UNL1        0.1595
     29 C           2.0971    2.4755   29.4428 C.3     1  UNL1        0.1046
     30 C           4.4121   -0.6410   23.7563 C.3     1  UNL1        0.0216
     31 C           4.5689   -2.0281   24.3052 C.3     1  UNL1        0.0217
     32 C           5.6694   -2.9142   23.8015 C.3     1  UNL1        0.0792
     33 N           6.0690   -4.1312   24.5820 N.am    1  UNL1       -0.2720
     34 C           7.0423   -4.0083   25.7168 C.2     1  UNL1        0.4019
     35 O           7.6160   -2.6685   26.0710 O.2     1  UNL1       -0.2264
     36 H           5.6924   -5.0106   24.3495 H       1  UNL1        0.1527
     37 O           7.4419   -5.2254   26.4972 O.3     1  UNL1       -0.4291
     38 C           8.3378   -5.0892   27.6925 C.3     1  UNL1        0.2447
     39 C           7.7442   -4.9548   29.0634 C.ar    1  UNL1        0.0714
     40 C           7.6563   -6.0390   30.0963 C.ar    1  UNL1        0.1053
     41 N           6.9920   -5.4670   31.3135 N.ar    1  UNL1       -0.2350
     42 C           6.6693   -4.0292   31.0328 C.ar    1  UNL1        0.1343
     43 S           7.1341   -3.7127   29.6422 S.2     1  UNL1       -0.0652
     44 C           6.3704   -2.5831   22.5174 C.3     1  UNL1        0.0460
     45 C           5.7863   -3.0254   21.2084 C.ar    1  UNL1       -0.0205
     46 C           6.4325   -2.6097   19.9202 C.ar    1  UNL1       -0.0042
     47 C           5.8483   -3.0519   18.6113 C.ar    1  UNL1       -0.0003
     48 C           4.6180   -3.9098   18.5907 C.ar    1  UNL1       -0.0000
     49 C           3.9718   -4.3254   19.8790 C.ar    1  UNL1       -0.0003
     50 C           4.5560   -3.8832   21.1878 C.ar    1  UNL1       -0.0042
     51 C           2.6139   -0.7496   21.8843 C.3     1  UNL1        0.0459
     52 C           3.2922   -0.3438   20.6095 C.ar    1  UNL1       -0.0205
     53 C           2.7521   -0.8117   19.2906 C.ar    1  UNL1       -0.0042
     54 C           3.4304   -0.4060   18.0158 C.ar    1  UNL1       -0.0003
     55 C           4.6490    0.4676   18.0598 C.ar    1  UNL1       -0.0000
     56 C           5.1891    0.9355   19.3786 C.ar    1  UNL1       -0.0003
     57 C           4.5107    0.5298   20.6535 C.ar    1  UNL1       -0.0042
@<TRIPOS>BOND
     1    19    20    1
     2    20    21    1
     3    20    14    1
     4    14    15   ar
     5    15    16   ar
     6    16    13    1
     7    13     7    1
     8     7     8    1
     9     7     9   am
    10     9    10    2
    11     9    11   am
    12    11     6    1
    13     6    22    1
    14    22    23    1
    15    23    24    1
    16    24    25    1
    17    25    26    1
    18    26    27    1
    19    27    28    1
    20    28    29    1
    21     6     2    1
    22     2     3    2
    23     2     4   am
    24     4     1    1
    25     1    30    1
    26    30    31    1
    27    32    31    1
    28    32    44    1
    29    44    45    1
    30    45    46   ar
    31    46    47   ar
    32    47    48   ar
    33    48    49   ar
    34    49    50   ar
    35    32    33    1
    36    33    34   am
    37    34    35    2
    38    34    37    1
    39    37    38    1
    40    38    39    1
    41    39    40   ar
    42    40    41   ar
    43    41    42   ar
    44    42    43   ar
    45     1    51    1
    46    51    52    1
    47    52    53   ar
    48    53    54   ar
    49    54    55   ar
    50    55    56   ar
    51    56    57   ar
    52    16    17   ar
    53    17    18   ar
    54    18    14   ar
    55    29    24    1
    56    50    45   ar
    57    43    39   ar
    58    57    52   ar
    59    11    12    1
    60     4     5    1
    61    33    36    1
