@<TRIPOS>MOLECULE
*****
 33 36 0 0 0
SMALL
GASTEIGER

@<TRIPOS>ATOM
      1 N          -2.7672    2.4610   20.4820 N.am    1  UNL1       -0.2681
      2 C          -1.4227    3.0650   20.7602 C.2     1  UNL1        0.3077
      3 O          -1.3144    4.5128   21.1371 O.2     1  UNL1       -0.2522
      4 N          -0.1864    2.2212   20.6615 N.am    1  UNL1       -0.2640
      5 C          -0.1384    0.7668   20.2975 C.3     1  UNL1        0.0950
      6 C           1.2965    0.3305   20.3205 C.3     1  UNL1        0.0219
      7 C           2.2131   -0.8381   20.1098 C.3     1  UNL1        0.0061
      8 C           3.6184   -0.3757   20.3578 C.3     1  UNL1        0.0224
      9 C           3.5703    1.0787   20.7218 C.3     1  UNL1        0.0061
     10 C           2.1353    1.5151   20.6988 C.3     1  UNL1        0.0219
     11 C           1.2188    2.6837   20.9095 C.3     1  UNL1        0.0950
     12 H          -2.8382    1.5107   20.2346 H       1  UNL1        0.1564
     13 C          -6.4760    4.9921   20.7782 C.ar    1  UNL1        0.1389
     14 C          -5.9819    4.2422   21.9796 C.ar    1  UNL1        0.0382
     15 C          -4.7456    3.3985   21.8808 C.ar    1  UNL1        0.0179
     16 C          -4.0035    3.3047   20.5807 C.ar    1  UNL1        0.0528
     17 C          -4.4975    4.0547   19.3792 C.ar    1  UNL1        0.0305
     18 C          -5.7338    4.8984   19.4780 C.ar    1  UNL1        0.0393
     19 C          -3.7554    3.9609   18.0791 C.2     1  UNL1        0.0742
     20 O          -2.4142    4.6164   17.9321 O.co2   1  UNL1       -0.5446
     21 O          -4.3544    3.2117   16.9259 O.co2   1  UNL1       -0.5446
     22 C          -8.2061    6.5863   19.6758 C.3     1  UNL1        0.2525
     23 O          -7.7123    5.8358   20.8769 O.3     1  UNL1       -0.4714
     24 C           4.8545   -1.2194   20.2591 C.ar    1  UNL1       -0.0186
     25 C           5.5173   -1.7275   21.5051 C.ar    1  UNL1       -0.0043
     26 C           6.7536   -2.5713   21.4065 C.ar    1  UNL1       -0.0003
     27 C           7.3271   -2.9070   20.0617 C.ar    1  UNL1       -0.0001
     28 C           6.6643   -2.3989   18.8156 C.ar    1  UNL1        0.0035
     29 C           5.4281   -1.5552   18.9143 C.ar    1  UNL1        0.0675
     30 C           4.7654   -1.0471   17.6683 C.3     1  UNL1        0.4183
     31 F           4.1027   -0.5390   16.4222 F       1  UNL1       -0.1659
     32 F           3.9110   -2.2790   17.6203 F       1  UNL1       -0.1659
     33 F           5.6198    0.1849   17.7162 F       1  UNL1       -0.1659
@<TRIPOS>UNITY_ATOM_ATTR
20 1
charge -1
@<TRIPOS>BOND
     1    22    23    1
     2    23    13    1
     3    13    14   ar
     4    14    15   ar
     5    15    16   ar
     6    16     1    1
     7     1     2   am
     8     2     3    2
     9     2     4   am
    10     4     5    1
    11     6     5    1
    12     6     7    1
    13     7     8    1
    14     8    24    1
    15    24    25   ar
    16    25    26   ar
    17    26    27   ar
    18    27    28   ar
    19    28    29   ar
    20    29    30    1
    21    30    31    1
    22    30    32    1
    23    30    33    1
    24     8     9    1
    25    10     9    1
    26    10    11    1
    27    16    17   ar
    28    17    19    1
    29    19    20   ar
    30    19    21   ar
    31    17    18   ar
    32    18    13   ar
    33    11     4    1
    34    10     6    1
    35    29    24   ar
    36     1    12    1
@<TRIPOS>MOLECULE
*****
 33 36 0 0 0
SMALL
GASTEIGER

@<TRIPOS>ATOM
      1 N          -2.8849    2.5677   20.4833 N.am    1  UNL1       -0.2681
      2 C          -1.5728    3.2107   20.1444 C.2     1  UNL1        0.3077
      3 O          -1.5187    4.6707   19.8048 O.2     1  UNL1       -0.2522
      4 N          -0.3149    2.3937   20.1450 N.am    1  UNL1       -0.2640
      5 C          -0.2136    0.9311   20.4623 C.3     1  UNL1        0.0950
      6 C           1.2265    0.5293   20.3419 C.3     1  UNL1        0.0219
      7 C           2.1792   -0.6229   20.4635 C.3     1  UNL1        0.0061
      8 C           3.5568   -0.1209   20.1470 C.3     1  UNL1        0.0224
      9 C           3.4555    1.3418   19.8297 C.3     1  UNL1        0.0061
     10 C           2.0153    1.7435   19.9501 C.3     1  UNL1        0.0219
     11 C           1.0627    2.8958   19.8285 C.3     1  UNL1        0.0950
     12 H          -2.9205    1.6094   20.7062 H       1  UNL1        0.1564
     13 C          -6.6589    5.0185   20.4813 C.ar    1  UNL1        0.1389
     14 C          -6.0971    4.5057   19.1885 C.ar    1  UNL1        0.0382
     15 C          -4.8390    3.6888   19.1893 C.ar    1  UNL1        0.0179
     16 C          -4.1430    3.3847   20.4827 C.ar    1  UNL1        0.0528
     17 C          -4.7049    3.8974   21.7755 C.ar    1  UNL1        0.0305
     18 C          -5.9629    4.7144   21.7748 C.ar    1  UNL1        0.0393
     19 C          -4.0088    3.5933   23.0689 C.2     1  UNL1        0.0742
     20 O          -2.5952    4.0464   23.2845 O.co2   1  UNL1       -0.5446
     21 O          -4.7264    2.8361   24.1467 O.co2   1  UNL1       -0.5446
     22 C          -8.4724    6.3562   19.1883 C.3     1  UNL1        0.2525
     23 O          -7.9170    5.8355   20.4806 O.3     1  UNL1       -0.4714
     24 C           4.8147   -0.9378   20.1476 C.ar    1  UNL1       -0.0186
     25 C           5.6075   -1.0932   21.4114 C.ar    1  UNL1       -0.0043
     26 C           6.8655   -1.9102   21.4121 C.ar    1  UNL1       -0.0003
     27 C           7.3307   -2.5718   20.1489 C.ar    1  UNL1       -0.0001
     28 C           6.5379   -2.4165   18.8849 C.ar    1  UNL1        0.0035
     29 C           5.2800   -1.5995   18.8843 C.ar    1  UNL1        0.0675
     30 C           4.4872   -1.4441   17.6205 C.3     1  UNL1        0.4183
     31 F           3.6944   -1.2887   16.3566 F       1  UNL1       -0.1659
     32 F           5.3640   -0.2979   17.2114 F       1  UNL1       -0.1659
     33 F           3.6104   -2.5903   18.0295 F       1  UNL1       -0.1659
@<TRIPOS>UNITY_ATOM_ATTR
20 1
charge -1
@<TRIPOS>BOND
     1    22    23    1
     2    23    13    1
     3    13    14   ar
     4    14    15   ar
     5    15    16   ar
     6    16     1    1
     7     1     2   am
     8     2     3    2
     9     2     4   am
    10     4     5    1
    11     6     5    1
    12     6     7    1
    13     7     8    1
    14     8    24    1
    15    24    25   ar
    16    25    26   ar
    17    26    27   ar
    18    27    28   ar
    19    28    29   ar
    20    29    30    1
    21    30    31    1
    22    30    32    1
    23    30    33    1
    24     8     9    1
    25    10     9    1
    26    10    11    1
    27    16    17   ar
    28    17    19    1
    29    19    20   ar
    30    19    21   ar
    31    17    18   ar
    32    18    13   ar
    33    11     4    1
    34    10     6    1
    35    29    24   ar
    36     1    12    1
@<TRIPOS>MOLECULE
*****
 33 36 0 0 0
SMALL
GASTEIGER

@<TRIPOS>ATOM
      1 N          -3.1401    2.7625   20.8437 N.am    1  UNL1       -0.2681
      2 C          -1.8074    3.2247   21.3540 C.2     1  UNL1        0.3077
      3 O          -1.7284    4.3852   22.3011 O.2     1  UNL1       -0.2522
      4 N          -0.5538    2.5264   20.9171 N.am    1  UNL1       -0.2640
      5 C          -0.4763    1.3580   19.9797 C.3     1  UNL1        0.0950
      6 C           0.9678    0.9835   19.8243 C.3     1  UNL1        0.0219
      7 C           1.9083    0.0299   19.1488 C.3     1  UNL1        0.0061
      8 C           3.3046    0.3774   19.5728 C.3     1  UNL1        0.0224
      9 C           3.2270    1.5458   20.5103 C.3     1  UNL1        0.0061
     10 C           1.7829    1.9204   20.6657 C.3     1  UNL1        0.0219
     11 C           0.8424    2.8740   21.3411 C.3     1  UNL1        0.0950
     12 H          -3.1919    2.0008   20.2221 H       1  UNL1        0.1564
     13 C          -6.9011    4.8570   22.1541 C.ar    1  UNL1        0.1389
     14 C          -6.2393    3.8650   23.0640 C.ar    1  UNL1        0.0382
     15 C          -4.9856    3.1668   22.6271 C.ar    1  UNL1        0.0179
     16 C          -4.3938    3.4607   21.2805 C.ar    1  UNL1        0.0528
     17 C          -5.0556    4.4527   20.3707 C.ar    1  UNL1        0.0305
     18 C          -6.3093    5.1509   20.8075 C.ar    1  UNL1        0.0393
     19 C          -4.4638    4.7466   19.0240 C.2     1  UNL1        0.0742
     20 O          -4.1263    6.1581   18.6449 O.co2   1  UNL1       -0.5446
     21 O          -4.2096    3.6289   18.0565 O.co2   1  UNL1       -0.5446
     22 C          -8.3707    5.8715   24.0412 C.3     1  UNL1        0.2525
     23 O          -8.1548    5.5552   22.5910 O.3     1  UNL1       -0.4714
     24 C           4.5582   -0.3208   19.1360 C.ar    1  UNL1       -0.0186
     25 C           5.2774    0.1324   17.9002 C.ar    1  UNL1       -0.0043
     26 C           6.5311   -0.5659   17.4633 C.ar    1  UNL1       -0.0003
     27 C           7.0655   -1.7173   18.2624 C.ar    1  UNL1       -0.0001
     28 C           6.3462   -2.1706   19.4982 C.ar    1  UNL1        0.0035
     29 C           5.0926   -1.4724   19.9350 C.ar    1  UNL1        0.0675
     30 C           4.3734   -1.9256   21.1708 C.3     1  UNL1        0.4183
     31 F           3.6541   -2.3788   22.4067 F       1  UNL1       -0.1659
     32 F           5.2075   -0.9931   21.9983 F       1  UNL1       -0.1659
     33 F           3.5393   -2.8581   20.3434 F       1  UNL1       -0.1659
@<TRIPOS>UNITY_ATOM_ATTR
20 1
charge -1
@<TRIPOS>BOND
     1    22    23    1
     2    23    13    1
     3    13    14   ar
     4    14    15   ar
     5    15    16   ar
     6    16     1    1
     7     1     2   am
     8     2     3    2
     9     2     4   am
    10     4     5    1
    11     6     5    1
    12     6     7    1
    13     7     8    1
    14     8    24    1
    15    24    25   ar
    16    25    26   ar
    17    26    27   ar
    18    27    28   ar
    19    28    29   ar
    20    29    30    1
    21    30    31    1
    22    30    32    1
    23    30    33    1
    24     8     9    1
    25    10     9    1
    26    10    11    1
    27    16    17   ar
    28    17    19    1
    29    19    20   ar
    30    19    21   ar
    31    17    18   ar
    32    18    13   ar
    33    11     4    1
    34    10     6    1
    35    29    24   ar
    36     1    12    1
@<TRIPOS>MOLECULE
*****
 33 36 0 0 0
SMALL
GASTEIGER

@<TRIPOS>ATOM
      1 N           2.0793    1.4064   27.7761 N.am    1  UNL1       -0.2681
      2 C           3.0157    0.2406   27.6583 C.2     1  UNL1        0.3077
      3 O           3.6549   -0.3351   28.8871 O.2     1  UNL1       -0.2522
      4 N           3.3129   -0.3496   26.3117 N.am    1  UNL1       -0.2640
      5 C           2.7517    0.1170   25.0013 C.3     1  UNL1        0.0950
      6 C           3.3155   -0.7551   23.9188 C.3     1  UNL1        0.0219
      7 C           3.3171   -1.0057   22.4399 C.3     1  UNL1        0.0061
      8 C           4.2277   -2.1661   22.1673 C.3     1  UNL1        0.0224
      9 C           4.7890   -2.6326   23.4779 C.3     1  UNL1        0.0061
     10 C           4.2252   -1.7605   24.5603 C.3     1  UNL1        0.0219
     11 C           4.2236   -1.5099   26.0392 C.3     1  UNL1        0.0950
     12 H           1.6597    1.7843   26.9696 H       1  UNL1        0.1564
     13 C           1.1876    3.1772   31.8158 C.ar    1  UNL1        0.1389
     14 C           2.5096    3.4393   31.1573 C.ar    1  UNL1        0.0382
     15 C           2.8068    2.8490   29.8107 C.ar    1  UNL1        0.0179
     16 C           1.7820    1.9967   29.1227 C.ar    1  UNL1        0.0528
     17 C           0.4600    1.7347   29.7811 C.ar    1  UNL1        0.0305
     18 C           0.1628    2.3250   31.1277 C.ar    1  UNL1        0.0393
     19 C          -0.5648    0.8824   29.0931 C.2     1  UNL1        0.0742
     20 O          -0.8648    1.0969   27.6391 O.co2   1  UNL1       -0.5446
     21 O          -1.2897   -0.1843   29.8590 O.co2   1  UNL1       -0.5446
     22 C           0.0015    4.9705   33.2743 C.3     1  UNL1        0.2525
     23 O           0.8904    3.7675   33.1623 O.3     1  UNL1       -0.4714
     24 C           4.5250   -2.7562   20.8208 C.ar    1  UNL1       -0.0186
     25 C           3.9291   -4.0769   20.4327 C.ar    1  UNL1       -0.0043
     26 C           4.2263   -4.6672   19.0860 C.ar    1  UNL1       -0.0003
     27 C           5.1195   -3.9367   18.1276 C.ar    1  UNL1       -0.0001
     28 C           5.7154   -2.6159   18.5157 C.ar    1  UNL1        0.0035
     29 C           5.4181   -2.0257   19.8622 C.ar    1  UNL1        0.0675
     30 C           6.0140   -0.7050   20.2504 C.3     1  UNL1        0.4183
     31 F           6.6098    0.6157   20.6385 F       1  UNL1       -0.1659
     32 F           4.8574    0.0047   19.6112 F       1  UNL1       -0.1659
     33 F           7.1706   -1.4147   20.8896 F       1  UNL1       -0.1659
@<TRIPOS>UNITY_ATOM_ATTR
20 1
charge -1
@<TRIPOS>BOND
     1    22    23    1
     2    23    13    1
     3    13    14   ar
     4    14    15   ar
     5    15    16   ar
     6    16     1    1
     7     1     2   am
     8     2     3    2
     9     2     4   am
    10     4     5    1
    11     6     5    1
    12     6     7    1
    13     7     8    1
    14     8    24    1
    15    24    25   ar
    16    25    26   ar
    17    26    27   ar
    18    27    28   ar
    19    28    29   ar
    20    29    30    1
    21    30    31    1
    22    30    32    1
    23    30    33    1
    24     8     9    1
    25    10     9    1
    26    10    11    1
    27    16    17   ar
    28    17    19    1
    29    19    20   ar
    30    19    21   ar
    31    17    18   ar
    32    18    13   ar
    33    11     4    1
    34    10     6    1
    35    29    24   ar
    36     1    12    1
@<TRIPOS>MOLECULE
*****
 33 36 0 0 0
SMALL
GASTEIGER

@<TRIPOS>ATOM
      1 N           2.6010    1.8108   28.0683 N.am    1  UNL1       -0.2681
      2 C           2.9126    0.4662   27.4809 C.2     1  UNL1        0.3077
      3 O           3.0046   -0.7378   28.3707 O.2     1  UNL1       -0.2522
      4 N           3.1322    0.3257   26.0038 N.am    1  UNL1       -0.2640
      5 C           3.0728    1.4335   24.9942 C.3     1  UNL1        0.0950
      6 C           3.3537    0.8451   23.6434 C.3     1  UNL1        0.0219
      7 C           3.4906    1.1662   22.1845 C.3     1  UNL1        0.0061
      8 C           3.8082   -0.1069   21.4575 C.3     1  UNL1        0.0224
      9 C           3.8676   -1.2147   22.4671 C.3     1  UNL1        0.0061
     10 C           3.5867   -0.6263   23.8180 C.3     1  UNL1        0.0219
     11 C           3.4498   -0.9474   25.2768 C.3     1  UNL1        0.0950
     12 H           2.5406    2.6010   27.4842 H       1  UNL1        0.1564
     13 C           1.9422    2.2327   32.4997 C.ar    1  UNL1        0.1389
     14 C           3.3039    2.4718   31.9179 C.ar    1  UNL1        0.0382
     15 C           3.5234    2.3311   30.4407 C.ar    1  UNL1        0.0179
     16 C           2.3813    1.9514   29.5455 C.ar    1  UNL1        0.0528
     17 C           1.0196    1.7123   30.1273 C.ar    1  UNL1        0.0305
     18 C           0.8001    1.8529   31.6045 C.ar    1  UNL1        0.0393
     19 C          -0.1225    1.3326   29.2321 C.2     1  UNL1        0.0742
     20 O          -0.9661    0.1362   29.5592 O.co2   1  UNL1       -0.5446
     21 O          -0.4209    2.1493   28.0099 O.co2   1  UNL1       -0.5446
     22 C           2.8632    2.1633   34.9280 C.3     1  UNL1        0.2525
     23 O           1.7226    2.3733   33.9769 O.3     1  UNL1       -0.4714
     24 C           4.0278   -0.2474   19.9804 C.ar    1  UNL1       -0.0186
     25 C           5.4173   -0.4180   19.4416 C.ar    1  UNL1       -0.0043
     26 C           5.6370   -0.5585   17.9644 C.ar    1  UNL1       -0.0003
     27 C           4.4672   -0.5285   17.0261 C.ar    1  UNL1       -0.0001
     28 C           3.0776   -0.3579   17.5649 C.ar    1  UNL1        0.0035
     29 C           2.8580   -0.2174   19.0419 C.ar    1  UNL1        0.0675
     30 C           1.4685   -0.0468   19.5807 C.3     1  UNL1        0.4183
     31 F           0.0791    0.1237   20.1195 F       1  UNL1       -0.1659
     32 F           1.4609   -1.4824   20.0154 F       1  UNL1       -0.1659
     33 F           1.4762    1.3888   19.1461 F       1  UNL1       -0.1659
@<TRIPOS>UNITY_ATOM_ATTR
20 1
charge -1
@<TRIPOS>BOND
     1    22    23    1
     2    23    13    1
     3    13    14   ar
     4    14    15   ar
     5    15    16   ar
     6    16     1    1
     7     1     2   am
     8     2     3    2
     9     2     4   am
    10     4     5    1
    11     6     5    1
    12     6     7    1
    13     7     8    1
    14     8    24    1
    15    24    25   ar
    16    25    26   ar
    17    26    27   ar
    18    27    28   ar
    19    28    29   ar
    20    29    30    1
    21    30    31    1
    22    30    32    1
    23    30    33    1
    24     8     9    1
    25    10     9    1
    26    10    11    1
    27    16    17   ar
    28    17    19    1
    29    19    20   ar
    30    19    21   ar
    31    17    18   ar
    32    18    13   ar
    33    11     4    1
    34    10     6    1
    35    29    24   ar
    36     1    12    1
@<TRIPOS>MOLECULE
*****
 33 36 0 0 0
SMALL
GASTEIGER

@<TRIPOS>ATOM
      1 N           1.6445    2.5080   27.9271 N.am    1  UNL1       -0.2681
      2 C           0.6712    2.3317   26.7995 C.2     1  UNL1        0.3077
      3 O          -0.7710    2.6977   26.9895 O.2     1  UNL1       -0.2522
      4 N           1.1401    1.7893   25.4819 N.am    1  UNL1       -0.2640
      5 C           2.5439    1.3819   25.1455 C.3     1  UNL1        0.0950
      6 C           2.5589    0.9000   23.7251 C.3     1  UNL1        0.0219
      7 C           3.4357    0.3503   22.6393 C.3     1  UNL1        0.0061
      8 C           2.5831    0.1201   21.4268 C.3     1  UNL1        0.0224
      9 C           1.1792    0.5275   21.7634 C.3     1  UNL1        0.0061
     10 C           1.1642    1.0095   23.1837 C.3     1  UNL1        0.0219
     11 C           0.2874    1.5591   24.2695 C.3     1  UNL1        0.0950
     12 H           2.5911    2.2678   27.8024 H       1  UNL1        0.1564
     13 C           0.2381    4.1352   31.8798 C.ar    1  UNL1        0.1389
     14 C           0.4766    5.0658   30.7279 C.ar    1  UNL1        0.0382
     15 C           0.9454    4.5233   29.4103 C.ar    1  UNL1        0.0179
     16 C           1.1757    3.0504   29.2448 C.ar    1  UNL1        0.0528
     17 C           0.9372    2.1199   30.3968 C.ar    1  UNL1        0.0305
     18 C           0.4684    2.6623   31.7143 C.ar    1  UNL1        0.0393
     19 C           1.1675    0.6469   30.2312 C.2     1  UNL1        0.0742
     20 O           0.3177   -0.1429   29.2804 O.co2   1  UNL1       -0.5446
     21 O           2.2475   -0.0362   31.0166 O.co2   1  UNL1       -0.5446
     22 C          -1.2555    5.7722   33.2361 C.3     1  UNL1        0.2525
     23 O          -0.2307    4.6777   33.1974 O.3     1  UNL1       -0.4714
     24 C           3.0519   -0.4222   20.1093 C.ar    1  UNL1       -0.0186
     25 C           3.5049   -1.8483   20.0036 C.ar    1  UNL1       -0.0043
     26 C           3.9737   -2.3907   18.6860 C.ar    1  UNL1       -0.0003
     27 C           3.9896   -1.5070   17.4741 C.ar    1  UNL1       -0.0001
     28 C           3.5367   -0.0808   17.5798 C.ar    1  UNL1        0.0035
     29 C           3.0679    0.4615   18.8973 C.ar    1  UNL1        0.0675
     30 C           2.6149    1.8875   19.0030 C.3     1  UNL1        0.4183
     31 F           2.1620    3.3136   19.1087 F       1  UNL1       -0.1659
     32 F           3.9788    2.2850   19.4844 F       1  UNL1       -0.1659
     33 F           1.2510    1.4900   18.5215 F       1  UNL1       -0.1659
@<TRIPOS>UNITY_ATOM_ATTR
20 1
charge -1
@<TRIPOS>BOND
     1    22    23    1
     2    23    13    1
     3    13    14   ar
     4    14    15   ar
     5    15    16   ar
     6    16     1    1
     7     1     2   am
     8     2     3    2
     9     2     4   am
    10     4     5    1
    11     6     5    1
    12     6     7    1
    13     7     8    1
    14     8    24    1
    15    24    25   ar
    16    25    26   ar
    17    26    27   ar
    18    27    28   ar
    19    28    29   ar
    20    29    30    1
    21    30    31    1
    22    30    32    1
    23    30    33    1
    24     8     9    1
    25    10     9    1
    26    10    11    1
    27    16    17   ar
    28    17    19    1
    29    19    20   ar
    30    19    21   ar
    31    17    18   ar
    32    18    13   ar
    33    11     4    1
    34    10     6    1
    35    29    24   ar
    36     1    12    1
@<TRIPOS>MOLECULE
*****
 33 36 0 0 0
SMALL
GASTEIGER

@<TRIPOS>ATOM
      1 N           3.1554   -0.8250   24.9118 N.am    1  UNL1       -0.2681
      2 C           4.3235   -0.2183   25.6311 C.2     1  UNL1        0.3077
      3 O           5.4987    0.2955   24.8533 O.2     1  UNL1       -0.2522
      4 N           4.3165   -0.1255   27.1282 N.am    1  UNL1       -0.2640
      5 C           3.2178   -0.5943   28.0355 C.3     1  UNL1        0.0950
      6 C           3.6292   -0.3060   29.4489 C.3     1  UNL1        0.0219
      7 C           3.2045   -0.4175   30.8831 C.3     1  UNL1        0.0061
      8 C           4.2949    0.1604   31.7359 C.3     1  UNL1        0.0224
      9 C           5.3935    0.6292   30.8285 C.3     1  UNL1        0.0061
     10 C           4.9821    0.3410   29.4151 C.3     1  UNL1        0.0219
     11 C           5.4069    0.4525   27.9808 C.3     1  UNL1        0.0950
     12 H           2.3841   -1.1623   25.4223 H       1  UNL1        0.1564
     13 C           3.1764   -1.1039   20.4205 C.ar    1  UNL1        0.1389
     14 C           3.9535   -2.0935   21.2370 C.ar    1  UNL1        0.0382
     15 C           3.9465   -2.0005   22.7341 C.ar    1  UNL1        0.0179
     16 C           3.1624   -0.9180   23.4147 C.ar    1  UNL1        0.0528
     17 C           2.3852    0.0716   22.5982 C.ar    1  UNL1        0.0305
     18 C           2.3922   -0.0214   21.1011 C.ar    1  UNL1        0.0393
     19 C           1.6010    1.1542   23.2787 C.2     1  UNL1        0.0742
     20 O           1.6944    2.5689   22.7890 O.co2   1  UNL1       -0.5446
     21 O           0.7235    0.8220   24.4490 O.co2   1  UNL1       -0.5446
     22 C           4.2982   -1.9142   18.2217 C.3     1  UNL1        0.2525
     23 O           3.1834   -1.1969   18.9234 O.3     1  UNL1       -0.4714
     24 C           4.2878    0.2533   33.2329 C.ar    1  UNL1       -0.0186
     25 C           3.7147    1.4648   33.9065 C.ar    1  UNL1       -0.0043
     26 C           3.7076    1.5577   35.4036 C.ar    1  UNL1       -0.0003
     27 C           4.2738    0.4391   36.2271 C.ar    1  UNL1       -0.0001
     28 C           4.8470   -0.7724   35.5535 C.ar    1  UNL1        0.0035
     29 C           4.8540   -0.8653   34.0565 C.ar    1  UNL1        0.0675
     30 C           5.4272   -2.0768   33.3828 C.3     1  UNL1        0.4183
     31 F           6.0004   -3.2882   32.7092 F       1  UNL1       -0.1659
     32 F           6.7569   -1.3903   33.2798 F       1  UNL1       -0.1659
     33 F           4.0975   -2.7632   33.4859 F       1  UNL1       -0.1659
@<TRIPOS>UNITY_ATOM_ATTR
20 1
charge -1
@<TRIPOS>BOND
     1    22    23    1
     2    23    13    1
     3    13    14   ar
     4    14    15   ar
     5    15    16   ar
     6    16     1    1
     7     1     2   am
     8     2     3    2
     9     2     4   am
    10     4     5    1
    11     6     5    1
    12     6     7    1
    13     7     8    1
    14     8    24    1
    15    24    25   ar
    16    25    26   ar
    17    26    27   ar
    18    27    28   ar
    19    28    29   ar
    20    29    30    1
    21    30    31    1
    22    30    32    1
    23    30    33    1
    24     8     9    1
    25    10     9    1
    26    10    11    1
    27    16    17   ar
    28    17    19    1
    29    19    20   ar
    30    19    21   ar
    31    17    18   ar
    32    18    13   ar
    33    11     4    1
    34    10     6    1
    35    29    24   ar
    36     1    12    1
@<TRIPOS>MOLECULE
*****
 33 36 0 0 0
SMALL
GASTEIGER

@<TRIPOS>ATOM
      1 N           3.7577   -0.7596   28.6455 N.am    1  UNL1       -0.2681
      2 C           4.7810   -0.1324   27.7458 C.2     1  UNL1        0.3077
      3 O           5.9480    0.6028   28.3354 O.2     1  UNL1       -0.2522
      4 N           4.6373   -0.2403   26.2566 N.am    1  UNL1       -0.2640
      5 C           3.5297   -0.9400   25.5262 C.3     1  UNL1        0.0950
      6 C           3.7838   -0.7996   24.0545 C.3     1  UNL1        0.0219
      7 C           3.2564   -1.1452   22.6935 C.3     1  UNL1        0.0061
      8 C           4.1950   -0.5723   21.6733 C.3     1  UNL1        0.0224
      9 C           5.3026    0.1275   22.4039 C.3     1  UNL1        0.0061
     10 C           5.0484   -0.0130   23.8755 C.3     1  UNL1        0.0219
     11 C           5.5759    0.3327   25.2365 C.3     1  UNL1        0.0950
     12 H           2.9917   -1.2421   28.2585 H       1  UNL1        0.1564
     13 C           4.1887   -0.4361   33.1130 C.ar    1  UNL1        0.1389
     14 C           5.0904   -1.3495   32.3368 C.ar    1  UNL1        0.0382
     15 C           4.9467   -1.4573   30.8476 C.ar    1  UNL1        0.0179
     16 C           3.9013   -0.6517   30.1347 C.ar    1  UNL1        0.0528
     17 C           2.9996    0.2617   30.9110 C.ar    1  UNL1        0.0305
     18 C           3.1434    0.3695   32.4002 C.ar    1  UNL1        0.0393
     19 C           1.9543    1.0673   30.1981 C.2     1  UNL1        0.0742
     20 O           2.3433    1.9566   29.0545 O.co2   1  UNL1       -0.5446
     21 O           0.5199    0.9835   30.6288 O.co2   1  UNL1       -0.5446
     22 C           5.6952   -0.3565   35.2283 C.3     1  UNL1        0.2525
     23 O           4.3325   -0.3283   34.6023 O.3     1  UNL1       -0.4714
     24 C           4.0513   -0.6802   20.1842 C.ar    1  UNL1       -0.0186
     25 C           3.3596    0.4072   19.4167 C.ar    1  UNL1       -0.0043
     26 C           3.2159    0.2994   17.9275 C.ar    1  UNL1       -0.0003
     27 C           3.7639   -0.8960   17.2058 C.ar    1  UNL1       -0.0001
     28 C           4.4556   -1.9835   17.9733 C.ar    1  UNL1        0.0035
     29 C           4.5993   -1.8756   19.4624 C.ar    1  UNL1        0.0675
     30 C           5.2909   -2.9630   20.2299 C.3     1  UNL1        0.4183
     31 F           5.9826   -4.0505   20.9974 F       1  UNL1       -0.1659
     32 F           3.9776   -3.6612   20.4242 F       1  UNL1       -0.1659
     33 F           6.6042   -2.2648   20.0356 F       1  UNL1       -0.1659
@<TRIPOS>UNITY_ATOM_ATTR
20 1
charge -1
@<TRIPOS>BOND
     1    22    23    1
     2    23    13    1
     3    13    14   ar
     4    14    15   ar
     5    15    16   ar
     6    16     1    1
     7     1     2   am
     8     2     3    2
     9     2     4   am
    10     4     5    1
    11     6     5    1
    12     6     7    1
    13     7     8    1
    14     8    24    1
    15    24    25   ar
    16    25    26   ar
    17    26    27   ar
    18    27    28   ar
    19    28    29   ar
    20    29    30    1
    21    30    31    1
    22    30    32    1
    23    30    33    1
    24     8     9    1
    25    10     9    1
    26    10    11    1
    27    16    17   ar
    28    17    19    1
    29    19    20   ar
    30    19    21   ar
    31    17    18   ar
    32    18    13   ar
    33    11     4    1
    34    10     6    1
    35    29    24   ar
    36     1    12    1
@<TRIPOS>MOLECULE
*****
 33 36 0 0 0
SMALL
GASTEIGER

@<TRIPOS>ATOM
      1 N          -2.7738    2.6025   20.7717 N.am    1  UNL1       -0.2681
      2 C          -1.6556    3.1767   19.9533 C.2     1  UNL1        0.3077
      3 O          -1.8123    4.5219   19.3084 O.2     1  UNL1       -0.2522
      4 N          -0.3806    2.4058   19.7797 N.am    1  UNL1       -0.2640
      5 C          -0.0803    1.0560   20.3611 C.3     1  UNL1        0.0950
      6 C           1.3038    0.6653   19.9350 C.3     1  UNL1        0.0219
      7 C           2.3448   -0.4103   20.0309 C.3     1  UNL1        0.0061
      8 C           3.5433    0.0330   19.2454 C.3     1  UNL1        0.0224
      9 C           3.2430    1.3828   18.6639 C.3     1  UNL1        0.0061
     10 C           1.8589    1.7735   19.0901 C.3     1  UNL1        0.0219
     11 C           0.8178    2.8492   18.9942 C.3     1  UNL1        0.0950
     12 H          -2.6709    1.7196   21.1949 H       1  UNL1        0.1564
     13 C          -6.5987    4.9151   21.2925 C.ar    1  UNL1        0.1389
     14 C          -6.3114    4.2238   19.9927 C.ar    1  UNL1        0.0382
     15 C          -5.0364    3.4529   19.8192 C.ar    1  UNL1        0.0179
     16 C          -4.0488    3.3734   20.9454 C.ar    1  UNL1        0.0528
     17 C          -4.3361    4.0647   22.2451 C.ar    1  UNL1        0.0305
     18 C          -5.6111    4.8356   22.4187 C.ar    1  UNL1        0.0393
     19 C          -3.3485    3.9852   23.3713 C.2     1  UNL1        0.0742
     20 O          -1.9135    4.3544   23.1380 O.co2   1  UNL1       -0.5446
     21 O          -3.7960    3.5365   24.7309 O.co2   1  UNL1       -0.5446
     22 C          -7.8648    6.9956   22.1971 C.3     1  UNL1        0.2525
     23 O          -7.8737    5.6860   21.4661 O.3     1  UNL1       -0.4714
     24 C           4.8182   -0.7379   19.0718 C.ar    1  UNL1       -0.0186
     25 C           4.9211   -1.7867   18.0044 C.ar    1  UNL1       -0.0043
     26 C           6.1960   -2.5577   17.8308 C.ar    1  UNL1       -0.0003
     27 C           7.3681   -2.2798   18.7245 C.ar    1  UNL1       -0.0001
     28 C           7.2653   -1.2308   19.7920 C.ar    1  UNL1        0.0035
     29 C           5.9904   -0.4600   19.9656 C.ar    1  UNL1        0.0675
     30 C           5.8876    0.5889   21.0329 C.3     1  UNL1        0.4183
     31 F           5.7847    1.6378   22.1003 F       1  UNL1       -0.1659
     32 F           6.3950    1.6199   20.0688 F       1  UNL1       -0.1659
     33 F           5.3801   -0.4420   21.9971 F       1  UNL1       -0.1659
@<TRIPOS>UNITY_ATOM_ATTR
20 1
charge -1
@<TRIPOS>BOND
     1    22    23    1
     2    23    13    1
     3    13    14   ar
     4    14    15   ar
     5    15    16   ar
     6    16     1    1
     7     1     2   am
     8     2     3    2
     9     2     4   am
    10     4     5    1
    11     6     5    1
    12     6     7    1
    13     7     8    1
    14     8    24    1
    15    24    25   ar
    16    25    26   ar
    17    26    27   ar
    18    27    28   ar
    19    28    29   ar
    20    29    30    1
    21    30    31    1
    22    30    32    1
    23    30    33    1
    24     8     9    1
    25    10     9    1
    26    10    11    1
    27    16    17   ar
    28    17    19    1
    29    19    20   ar
    30    19    21   ar
    31    17    18   ar
    32    18    13   ar
    33    11     4    1
    34    10     6    1
    35    29    24   ar
    36     1    12    1
