@<TRIPOS>MOLECULE
*****
 21 22 0 0 0
SMALL
GASTEIGER

@<TRIPOS>ATOM
      1 C           0.7432    0.5525   19.4208 C.2     1  UNL1        0.4049
      2 O          -0.1893    0.5278   20.5954 O.2     1  UNL1       -0.2262
      3 N           2.0500   -0.1812   19.4849 N.am    1  UNL1       -0.2454
      4 C           2.9825   -0.1564   18.3103 C.3     1  UNL1        0.1011
      5 C           4.2892   -0.8901   18.3745 C.3     1  UNL1        0.0443
      6 C           4.6635   -1.6485   19.6133 C.2     1  UNL1       -0.0326
      7 C           5.9702   -2.3822   19.6775 C.2     1  UNL1        0.0412
      8 C           3.7310   -1.6733   20.7879 C.3     1  UNL1        0.0443
      9 C           2.4242   -0.9396   20.7237 C.3     1  UNL1        0.1011
     10 C           6.3444   -3.1407   20.9162 C.1     1  UNL1       -0.0583
     11 C           6.7187   -3.8992   22.1551 C.1     1  UNL1       -0.0405
     12 C           7.0929   -4.6576   23.3939 C.ar    1  UNL1        0.1224
     13 C           6.5708   -4.2172   24.7295 C.ar    1  UNL1        0.0276
     14 C           6.9450   -4.9756   25.9682 C.ar    1  UNL1        0.0034
     15 C           7.8414   -6.1745   25.8716 C.ar    1  UNL1        0.0148
     16 C           8.3635   -6.6149   24.5362 C.ar    1  UNL1        0.0600
     17 C           9.2598   -7.8137   24.4396 C.3     1  UNL1        0.0521
     18 N           7.9893   -5.8564   23.2973 N.ar    1  UNL1       -0.2414
     19 O           0.3690    1.3110   18.1820 O.3     1  UNL1       -0.4345
     20 C           1.6148    3.5144   18.7677 C.3     1  UNL1        0.0513
     21 C           0.4320    2.8096   18.1723 C.3     1  UNL1        0.2102
@<TRIPOS>BOND
     1    20    21    1
     2    21    19    1
     3    19     1    1
     4     1     2    2
     5     1     3   am
     6     3     4    1
     7     4     5    1
     8     5     6    1
     9     6     7    2
    10     7    10    1
    11    10    11    3
    12    11    12    1
    13    12    13   ar
    14    13    14   ar
    15    14    15   ar
    16    15    16   ar
    17    16    17    1
    18    16    18   ar
    19     6     8    1
    20     8     9    1
    21     9     3    1
    22    18    12   ar
@<TRIPOS>MOLECULE
*****
 21 22 0 0 0
SMALL
GASTEIGER

@<TRIPOS>ATOM
      1 C           4.9955   -3.7690   20.0381 C.2     1  UNL1        0.4049
      2 O           4.7510   -4.1115   18.5984 O.2     1  UNL1       -0.2262
      3 N           4.1999   -2.6806   20.6957 N.am    1  UNL1       -0.2454
      4 C           4.4444   -2.3381   22.1354 C.3     1  UNL1        0.1011
      5 C           3.6489   -1.2496   22.7930 C.3     1  UNL1        0.0443
      6 C           2.6088   -0.5037   22.0108 C.2     1  UNL1       -0.0326
      7 C           1.8133    0.5848   22.6684 C.2     1  UNL1        0.0412
      8 C           2.3644   -0.8462   20.5711 C.3     1  UNL1        0.0443
      9 C           3.1599   -1.9346   19.9135 C.3     1  UNL1        0.1011
     10 C           0.7733    1.3307   21.8862 C.1     1  UNL1       -0.0583
     11 C          -0.2668    2.0767   21.1039 C.1     1  UNL1       -0.0405
     12 C          -1.3068    2.8227   20.3218 C.ar    1  UNL1        0.1224
     13 C          -0.9167    3.5807   19.0875 C.ar    1  UNL1        0.0276
     14 C          -1.9567    4.3266   18.3054 C.ar    1  UNL1        0.0034
     15 C          -3.3869    4.3146   18.7574 C.ar    1  UNL1        0.0148
     16 C          -3.7771    3.5567   19.9915 C.ar    1  UNL1        0.0600
     17 C          -5.2073    3.5447   20.4435 C.3     1  UNL1        0.0521
     18 N          -2.7371    2.8107   20.7738 N.ar    1  UNL1       -0.2414
     19 O           6.0355   -4.5150   20.8203 O.3     1  UNL1       -0.4345
     20 C           7.8420   -2.8121   20.0543 C.3     1  UNL1        0.0513
     21 C           7.4420   -3.9973   20.8822 C.3     1  UNL1        0.2102
@<TRIPOS>BOND
     1    20    21    1
     2    21    19    1
     3    19     1    1
     4     1     2    2
     5     1     3   am
     6     3     4    1
     7     4     5    1
     8     5     6    1
     9     6     7    2
    10     7    10    1
    11    10    11    3
    12    11    12    1
    13    12    13   ar
    14    13    14   ar
    15    14    15   ar
    16    15    16   ar
    17    16    17    1
    18    16    18   ar
    19     6     8    1
    20     8     9    1
    21     9     3    1
    22    18    12   ar
@<TRIPOS>MOLECULE
*****
 21 22 0 0 0
SMALL
GASTEIGER

@<TRIPOS>ATOM
      1 C           4.0523   -1.3106   17.8457 C.2     1  UNL1        0.4049
      2 O           3.9023   -1.1942   16.3578 O.2     1  UNL1       -0.2262
      3 N           3.0986   -0.5929   18.7541 N.am    1  UNL1       -0.2454
      4 C           3.2486   -0.7094   20.2420 C.3     1  UNL1        0.1011
      5 C           2.2948    0.0083   21.1505 C.3     1  UNL1        0.0443
      6 C           1.1911    0.8425   20.5710 C.2     1  UNL1       -0.0326
      7 C           0.2373    1.5602   21.4794 C.2     1  UNL1        0.0412
      8 C           1.0410    0.9589   19.0831 C.3     1  UNL1        0.0443
      9 C           1.9948    0.2412   18.1747 C.3     1  UNL1        0.1011
     10 C          -0.8665    2.3943   20.9000 C.1     1  UNL1       -0.0583
     11 C          -1.9704    3.2285   20.3205 C.1     1  UNL1       -0.0405
     12 C          -3.0741    4.0626   19.7410 C.ar    1  UNL1        0.1224
     13 C          -2.8113    5.4863   19.3483 C.ar    1  UNL1        0.0276
     14 C          -3.9151    6.3205   18.7689 C.ar    1  UNL1        0.0034
     15 C          -5.2817    5.7310   18.5821 C.ar    1  UNL1        0.0148
     16 C          -5.5446    4.3074   18.9748 C.ar    1  UNL1        0.0600
     17 C          -6.9112    3.7180   18.7880 C.3     1  UNL1        0.0521
     18 N          -4.4408    3.4732   19.5543 N.ar    1  UNL1       -0.2414
     19 O           5.1561   -2.1448   18.4252 O.3     1  UNL1       -0.4345
     20 C           3.6437   -4.1741   19.0124 C.3     1  UNL1        0.0513
     21 C           4.9727   -3.6249   18.5853 C.3     1  UNL1        0.2102
@<TRIPOS>BOND
     1    20    21    1
     2    21    19    1
     3    19     1    1
     4     1     2    2
     5     1     3   am
     6     3     4    1
     7     4     5    1
     8     5     6    1
     9     6     7    2
    10     7    10    1
    11    10    11    3
    12    11    12    1
    13    12    13   ar
    14    13    14   ar
    15    14    15   ar
    16    15    16   ar
    17    16    17    1
    18    16    18   ar
    19     6     8    1
    20     8     9    1
    21     9     3    1
    22    18    12   ar
@<TRIPOS>MOLECULE
*****
 21 22 0 0 0
SMALL
GASTEIGER

@<TRIPOS>ATOM
      1 C           6.2673   -0.8865   17.4817 C.2     1  UNL1        0.4049
      2 O           6.7146    0.2856   16.6595 O.2     1  UNL1       -0.2262
      3 N           4.9743   -0.8214   18.2392 N.am    1  UNL1       -0.2454
      4 C           4.5269   -1.9935   19.0615 C.3     1  UNL1        0.1011
      5 C           3.2339   -1.9284   19.8190 C.3     1  UNL1        0.0443
      6 C           2.3882   -0.6912   19.7543 C.2     1  UNL1       -0.0326
      7 C           1.0952   -0.6261   20.5118 C.2     1  UNL1        0.0412
      8 C           2.8356    0.4808   18.9321 C.3     1  UNL1        0.0443
      9 C           4.1286    0.4157   18.1745 C.3     1  UNL1        0.1011
     10 C           0.2495    0.6110   20.4471 C.1     1  UNL1       -0.0583
     11 C          -0.5962    1.8482   20.3824 C.1     1  UNL1       -0.0405
     12 C          -1.4419    3.0854   20.3177 C.ar    1  UNL1        0.1224
     13 C          -0.8323    4.3894   19.8956 C.ar    1  UNL1        0.0276
     14 C          -1.6780    5.6265   19.8308 C.ar    1  UNL1        0.0034
     15 C          -3.1333    5.5598   20.1882 C.ar    1  UNL1        0.0148
     16 C          -3.7429    4.2559   20.6103 C.ar    1  UNL1        0.0600
     17 C          -5.1981    4.1891   20.9677 C.3     1  UNL1        0.0521
     18 N          -2.8972    3.0186   20.6751 N.ar    1  UNL1       -0.2414
     19 O           7.1130   -2.1236   17.5464 O.3     1  UNL1       -0.4345
     20 C           8.3144   -1.1985   19.6561 C.3     1  UNL1        0.0513
     21 C           8.0910   -2.3057   18.6691 C.3     1  UNL1        0.2102
@<TRIPOS>BOND
     1    20    21    1
     2    21    19    1
     3    19     1    1
     4     1     2    2
     5     1     3   am
     6     3     4    1
     7     4     5    1
     8     5     6    1
     9     6     7    2
    10     7    10    1
    11    10    11    3
    12    11    12    1
    13    12    13   ar
    14    13    14   ar
    15    14    15   ar
    16    15    16   ar
    17    16    17    1
    18    16    18   ar
    19     6     8    1
    20     8     9    1
    21     9     3    1
    22    18    12   ar
@<TRIPOS>MOLECULE
*****
 21 22 0 0 0
SMALL
GASTEIGER

@<TRIPOS>ATOM
      1 C           4.7323   -3.4884   21.3161 C.2     1  UNL1        0.4049
      2 O           4.4190   -3.7150   22.7654 O.2     1  UNL1       -0.2262
      3 N           4.0227   -2.4077   20.5554 N.am    1  UNL1       -0.2454
      4 C           4.3360   -2.1811   19.1061 C.3     1  UNL1        0.1011
      5 C           3.6265   -1.1004   18.3455 C.3     1  UNL1        0.0443
      6 C           2.6036   -0.2463   19.0341 C.2     1  UNL1       -0.0326
      7 C           1.8940    0.8344   18.2734 C.2     1  UNL1        0.0412
      8 C           2.2903   -0.4729   20.4834 C.3     1  UNL1        0.0443
      9 C           2.9999   -1.5536   21.2440 C.3     1  UNL1        0.1011
     10 C           0.8711    1.6885   18.9620 C.1     1  UNL1       -0.0583
     11 C          -0.1518    2.5426   19.6507 C.1     1  UNL1       -0.0405
     12 C          -1.1746    3.3967   20.3393 C.ar    1  UNL1        0.1224
     13 C          -0.9038    4.8543   20.5675 C.ar    1  UNL1        0.0276
     14 C          -1.9267    5.7084   21.2561 C.ar    1  UNL1        0.0034
     15 C          -3.2204    5.1049   21.7166 C.ar    1  UNL1        0.0148
     16 C          -3.4913    3.6474   21.4884 C.ar    1  UNL1        0.0600
     17 C          -4.7851    3.0439   21.9488 C.3     1  UNL1        0.0521
     18 N          -2.4684    2.7932   20.7997 N.ar    1  UNL1       -0.2414
     19 O           5.7552   -4.3424   20.6275 O.3     1  UNL1       -0.4345
     20 C           7.8071   -2.7680   20.3805 C.3     1  UNL1        0.0513
     21 C           7.2168   -4.0719   20.8293 C.3     1  UNL1        0.2102
@<TRIPOS>BOND
     1    20    21    1
     2    21    19    1
     3    19     1    1
     4     1     2    2
     5     1     3   am
     6     3     4    1
     7     4     5    1
     8     5     6    1
     9     6     7    2
    10     7    10    1
    11    10    11    3
    12    11    12    1
    13    12    13   ar
    14    13    14   ar
    15    14    15   ar
    16    15    16   ar
    17    16    17    1
    18    16    18   ar
    19     6     8    1
    20     8     9    1
    21     9     3    1
    22    18    12   ar
@<TRIPOS>MOLECULE
*****
 21 22 0 0 0
SMALL
GASTEIGER

@<TRIPOS>ATOM
      1 C           6.4658   -4.1373   23.3238 C.2     1  UNL1        0.4049
      2 O           6.5260   -3.8011   24.7843 O.2     1  UNL1       -0.2262
      3 N           5.4940   -3.4257   22.4297 N.am    1  UNL1       -0.2454
      4 C           5.4339   -3.7620   20.9692 C.3     1  UNL1        0.1011
      5 C           4.4621   -3.0504   20.0751 C.3     1  UNL1        0.0443
      6 C           3.5505   -2.0026   20.6416 C.2     1  UNL1       -0.0326
      7 C           2.5787   -1.2910   19.7476 C.2     1  UNL1        0.0412
      8 C           3.6107   -1.6664   22.1022 C.3     1  UNL1        0.0443
      9 C           4.5824   -2.3779   22.9962 C.3     1  UNL1        0.1011
     10 C           1.6671   -0.2432   20.3141 C.1     1  UNL1       -0.0583
     11 C           0.7554    0.8047   20.8806 C.1     1  UNL1       -0.0405
     12 C          -0.1562    1.8525   21.4471 C.ar    1  UNL1        0.1224
     13 C           0.1228    2.4375   22.7999 C.ar    1  UNL1        0.0276
     14 C          -0.7888    3.4854   23.3664 C.ar    1  UNL1        0.0034
     15 C          -1.9795    3.9482   22.5802 C.ar    1  UNL1        0.0148
     16 C          -2.2585    3.3632   21.2274 C.ar    1  UNL1        0.0600
     17 C          -3.4491    3.8261   20.4412 C.3     1  UNL1        0.0521
     18 N          -1.3469    2.3153   20.6609 N.ar    1  UNL1       -0.2414
     19 O           7.3774   -5.1851   22.7573 O.3     1  UNL1       -0.4345
     20 C           8.3791   -7.2219   24.0216 C.3     1  UNL1        0.0513
     21 C           8.4571   -5.7812   23.6112 C.3     1  UNL1        0.2102
@<TRIPOS>BOND
     1    20    21    1
     2    21    19    1
     3    19     1    1
     4     1     2    2
     5     1     3   am
     6     3     4    1
     7     4     5    1
     8     5     6    1
     9     6     7    2
    10     7    10    1
    11    10    11    3
    12    11    12    1
    13    12    13   ar
    14    13    14   ar
    15    14    15   ar
    16    15    16   ar
    17    16    17    1
    18    16    18   ar
    19     6     8    1
    20     8     9    1
    21     9     3    1
    22    18    12   ar
@<TRIPOS>MOLECULE
*****
 21 22 0 0 0
SMALL
GASTEIGER

@<TRIPOS>ATOM
      1 C          -7.2342    5.0195   24.2621 C.2     1  UNL1        0.4049
      2 O          -7.6455    4.6678   22.8632 O.2     1  UNL1       -0.2262
      3 N          -5.8907    4.5963   24.7777 N.am    1  UNL1       -0.2454
      4 C          -5.4795    4.9480   26.1767 C.3     1  UNL1        0.1011
      5 C          -4.1359    4.5248   26.6923 C.3     1  UNL1        0.0443
      6 C          -3.2037    3.7499   25.8090 C.2     1  UNL1       -0.0326
      7 C          -1.8601    3.3267   26.3246 C.2     1  UNL1        0.0412
      8 C          -3.6149    3.3982   24.4100 C.3     1  UNL1        0.0443
      9 C          -4.9584    3.8214   23.8944 C.3     1  UNL1        0.1011
     10 C          -0.9278    2.5518   25.4412 C.1     1  UNL1       -0.0583
     11 C           0.0045    1.7769   24.5578 C.1     1  UNL1       -0.0405
     12 C           0.9368    1.0021   23.6744 C.ar    1  UNL1        0.1224
     13 C           2.1516    0.3448   24.2595 C.ar    1  UNL1        0.0276
     14 C           3.0839   -0.4301   23.3761 C.ar    1  UNL1        0.0034
     15 C           2.8014   -0.5477   21.9077 C.ar    1  UNL1        0.0148
     16 C           1.5867    0.1095   21.3226 C.ar    1  UNL1        0.0600
     17 C           1.3042   -0.0081   19.8541 C.3     1  UNL1        0.0521
     18 N           0.6543    0.8844   22.2059 N.ar    1  UNL1       -0.2414
     19 O          -8.1665    5.7943   25.1455 O.3     1  UNL1       -0.4345
     20 C         -10.2702    7.1693   24.4867 C.3     1  UNL1        0.0513
     21 C          -9.6299    5.8548   24.8216 C.3     1  UNL1        0.2102
@<TRIPOS>BOND
     1    20    21    1
     2    21    19    1
     3    19     1    1
     4     1     2    2
     5     1     3   am
     6     3     4    1
     7     4     5    1
     8     5     6    1
     9     6     7    2
    10     7    10    1
    11    10    11    3
    12    11    12    1
    13    12    13   ar
    14    13    14   ar
    15    14    15   ar
    16    15    16   ar
    17    16    17    1
    18    16    18   ar
    19     6     8    1
    20     8     9    1
    21     9     3    1
    22    18    12   ar
@<TRIPOS>MOLECULE
*****
 21 22 0 0 0
SMALL
GASTEIGER

@<TRIPOS>ATOM
      1 C           7.6420   -5.5031   27.2644 C.2     1  UNL1        0.4049
      2 O           6.4972   -4.9253   28.0425 O.2     1  UNL1       -0.2262
      3 N           7.7533   -5.2452   25.7909 N.am    1  UNL1       -0.2454
      4 C           8.8981   -5.8229   25.0128 C.3     1  UNL1        0.1011
      5 C           9.0094   -5.5651   23.5393 C.3     1  UNL1        0.0443
      6 C           7.9758   -4.7296   22.8440 C.2     1  UNL1       -0.0326
      7 C           8.0870   -4.4718   21.3705 C.2     1  UNL1        0.0412
      8 C           6.8309   -4.1519   23.6221 C.3     1  UNL1        0.0443
      9 C           6.7197   -4.4097   25.0956 C.3     1  UNL1        0.1011
     10 C           7.0535   -3.6362   20.6751 C.1     1  UNL1       -0.0583
     11 C           6.0199   -2.8006   19.9797 C.1     1  UNL1       -0.0405
     12 C           4.9863   -1.9651   19.2844 C.ar    1  UNL1        0.1224
     13 C           5.2349   -1.4716   17.8898 C.ar    1  UNL1        0.0276
     14 C           4.2014   -0.6360   17.1945 C.ar    1  UNL1        0.0034
     15 C           2.9191   -0.2940   17.8936 C.ar    1  UNL1        0.0148
     16 C           2.6704   -0.7875   19.2881 C.ar    1  UNL1        0.0600
     17 C           1.3881   -0.4454   19.9872 C.3     1  UNL1        0.0521
     18 N           3.7040   -1.6231   19.9835 N.ar    1  UNL1       -0.2414
     19 O           8.6756   -6.3386   27.9597 O.3     1  UNL1       -0.4345
     20 C           8.0898   -8.7210   27.1048 C.3     1  UNL1        0.0513
     21 C           8.4064   -7.7881   28.2360 C.3     1  UNL1        0.2102
@<TRIPOS>BOND
     1    20    21    1
     2    21    19    1
     3    19     1    1
     4     1     2    2
     5     1     3   am
     6     3     4    1
     7     4     5    1
     8     5     6    1
     9     6     7    2
    10     7    10    1
    11    10    11    3
    12    11    12    1
    13    12    13   ar
    14    13    14   ar
    15    14    15   ar
    16    15    16   ar
    17    16    17    1
    18    16    18   ar
    19     6     8    1
    20     8     9    1
    21     9     3    1
    22    18    12   ar
@<TRIPOS>MOLECULE
*****
 21 22 0 0 0
SMALL
GASTEIGER

@<TRIPOS>ATOM
      1 C           3.9734   -1.7984   20.2896 C.2     1  UNL1        0.4049
      2 O           3.6677   -2.6459   21.4888 O.2     1  UNL1       -0.2262
      3 N           3.0473   -0.6833   19.9034 N.am    1  UNL1       -0.2454
      4 C           3.3530    0.1642   18.7042 C.3     1  UNL1        0.1011
      5 C           2.4270    1.2792   18.3180 C.3     1  UNL1        0.0443
      6 C           1.1952    1.5467   19.1311 C.2     1  UNL1       -0.0326
      7 C           0.2691    2.6617   18.7449 C.2     1  UNL1        0.0412
      8 C           0.8895    0.6992   20.3303 C.3     1  UNL1        0.0443
      9 C           1.8156   -0.4158   20.7165 C.3     1  UNL1        0.1011
     10 C          -0.9626    2.9292   19.5579 C.1     1  UNL1       -0.0583
     11 C          -2.1945    3.1968   20.3710 C.1     1  UNL1       -0.0405
     12 C          -3.4263    3.4643   21.1841 C.ar    1  UNL1        0.1224
     13 C          -4.7274    3.7608   20.4990 C.ar    1  UNL1        0.0276
     14 C          -5.9592    4.0283   21.3121 C.ar    1  UNL1        0.0034
     15 C          -5.8899    3.9993   22.8102 C.ar    1  UNL1        0.0148
     16 C          -4.5889    3.7029   23.4953 C.ar    1  UNL1        0.0600
     17 C          -4.5196    3.6739   24.9934 C.3     1  UNL1        0.0521
     18 N          -3.3570    3.4354   22.6822 N.ar    1  UNL1       -0.2414
     19 O           5.2052   -2.0659   19.4765 O.3     1  UNL1       -0.4345
     20 C           4.6694   -4.5090   18.7737 C.3     1  UNL1        0.0513
     21 C           5.1970   -3.1461   18.4358 C.3     1  UNL1        0.2102
@<TRIPOS>BOND
     1    20    21    1
     2    21    19    1
     3    19     1    1
     4     1     2    2
     5     1     3   am
     6     3     4    1
     7     4     5    1
     8     5     6    1
     9     6     7    2
    10     7    10    1
    11    10    11    3
    12    11    12    1
    13    12    13   ar
    14    13    14   ar
    15    14    15   ar
    16    15    16   ar
    17    16    17    1
    18    16    18   ar
    19     6     8    1
    20     8     9    1
    21     9     3    1
    22    18    12   ar
