@<TRIPOS>MOLECULE
*****
 24 26 0 0 0
SMALL
GASTEIGER

@<TRIPOS>ATOM
      1 C          -4.9349  -18.4726   21.8467 C.ar    1  UNL1        0.1345
      2 C          -5.8398  -19.5521   21.3311 C.ar    1  UNL1        0.0244
      3 C          -7.2987  -19.5377   21.6795 C.ar    1  UNL1        0.0115
      4 C          -7.8527  -18.4438   22.5435 C.ar    1  UNL1        0.0611
      5 C          -6.9478  -17.3644   23.0592 C.ar    1  UNL1        0.1072
      6 N          -5.4889  -17.3787   22.7108 N.ar    1  UNL1       -0.2386
      7 N          -2.8982  -17.3979   20.6439 N.am    1  UNL1       -0.2980
      8 C          -3.4760  -18.4869   21.4983 C.2     1  UNL1        0.2636
      9 O          -2.5949  -19.5904   22.0044 O.2     1  UNL1       -0.2685
     10 H          -3.4765  -16.6736   20.3118 H       1  UNL1        0.1498
     11 C          -1.1506  -16.5220   21.4678 C.3     1  UNL1        0.0248
     12 C          -1.4392  -17.4122   20.2955 C.3     1  UNL1        0.1116
     13 C          -1.7278  -18.3024   19.1233 C.3     1  UNL1        0.1625
     14 O          -0.2689  -18.3167   18.7750 O.3     1  UNL1       -0.3502
     15 C           0.0197  -17.4265   19.9472 C.3     1  UNL1        0.1625
     16 C          -9.3116  -18.4295   22.8919 C.1     1  UNL1       -0.0582
     17 C         -10.7705  -18.4152   23.2403 C.1     1  UNL1       -0.0596
     18 C         -12.2295  -18.4009   23.5887 C.ar    1  UNL1        0.0442
     19 C         -13.2556  -18.2028   22.5127 C.ar    1  UNL1        0.0084
     20 C         -14.7145  -18.1885   22.8611 C.ar    1  UNL1        0.0029
     21 C         -15.1472  -18.3722   24.2856 C.ar    1  UNL1        0.0297
     22 C         -14.1211  -18.5703   25.3616 C.ar    1  UNL1        0.1408
     23 F         -14.5538  -18.7540   26.7860 F       1  UNL1       -0.2042
     24 C         -12.6622  -18.5846   25.0131 C.ar    1  UNL1        0.0379
@<TRIPOS>BOND
     1    11    12    1
     2    12     7    1
     3     7     8   am
     4     8     9    2
     5     8     1    1
     6     1     2   ar
     7     2     3   ar
     8     3     4   ar
     9     4    16    1
    10    16    17    3
    11    17    18    1
    12    18    19   ar
    13    19    20   ar
    14    20    21   ar
    15    21    22   ar
    16    22    23    1
    17    22    24   ar
    18     4     5   ar
    19     5     6   ar
    20    12    13    1
    21    13    14    1
    22    14    15    1
    23    15    12    1
    24     6     1   ar
    25    24    18   ar
    26     7    10    1
@<TRIPOS>MOLECULE
*****
 24 26 0 0 0
SMALL
GASTEIGER

@<TRIPOS>ATOM
      1 C           7.3519   -4.3273   29.7592 C.ar    1  UNL1        0.1345
      2 C           7.1307   -4.8465   31.1490 C.ar    1  UNL1        0.0244
      3 C           6.5470   -3.9500   32.2005 C.ar    1  UNL1        0.0115
      4 C           6.1845   -2.5343   31.8622 C.ar    1  UNL1        0.0611
      5 C           6.4057   -2.0151   30.4725 C.ar    1  UNL1        0.1072
      6 N           6.9894   -2.9116   29.4210 N.ar    1  UNL1       -0.2386
      7 N           7.4919   -6.6533   28.6103 N.am    1  UNL1       -0.2980
      8 C           7.9355   -5.2238   28.7077 C.2     1  UNL1        0.2636
      9 O           8.9628   -4.6906   27.7535 O.2     1  UNL1       -0.2685
     10 H           6.8177   -7.0032   29.2365 H       1  UNL1        0.1498
     11 C           9.1500   -7.9731   28.5160 C.3     1  UNL1        0.0248
     12 C           8.0756   -7.5498   27.5587 C.3     1  UNL1        0.1116
     13 C           7.0012   -7.1265   26.6014 C.3     1  UNL1        0.1625
     14 O           7.5849   -8.0229   25.5500 O.3     1  UNL1       -0.3502
     15 C           8.6593   -8.4462   26.5073 C.3     1  UNL1        0.1625
     16 C           5.6009   -1.6379   32.9138 C.1     1  UNL1       -0.0582
     17 C           5.0172   -0.7415   33.9653 C.1     1  UNL1       -0.0596
     18 C           4.4335    0.1550   35.0168 C.ar    1  UNL1        0.0442
     19 C           4.7315   -0.0952   36.4654 C.ar    1  UNL1        0.0084
     20 C           4.1478    0.8012   37.5169 C.ar    1  UNL1        0.0029
     21 C           3.2661    1.9479   37.1198 C.ar    1  UNL1        0.0297
     22 C           2.9681    2.1981   35.6712 C.ar    1  UNL1        0.1408
     23 F           2.0864    3.3448   35.2740 F       1  UNL1       -0.2042
     24 C           3.5518    1.3017   34.6197 C.ar    1  UNL1        0.0379
@<TRIPOS>BOND
     1    11    12    1
     2    12     7    1
     3     7     8   am
     4     8     9    2
     5     8     1    1
     6     1     2   ar
     7     2     3   ar
     8     3     4   ar
     9     4    16    1
    10    16    17    3
    11    17    18    1
    12    18    19   ar
    13    19    20   ar
    14    20    21   ar
    15    21    22   ar
    16    22    23    1
    17    22    24   ar
    18     4     5   ar
    19     5     6   ar
    20    12    13    1
    21    13    14    1
    22    14    15    1
    23    15    12    1
    24     6     1   ar
    25    24    18   ar
    26     7    10    1
@<TRIPOS>MOLECULE
*****
 24 26 0 0 0
SMALL
GASTEIGER

@<TRIPOS>ATOM
      1 C           6.7337   -3.6836   26.4904 C.ar    1  UNL1        0.1345
      2 C           6.7630   -4.3535   25.1487 C.ar    1  UNL1        0.0244
      3 C           5.9924   -3.7696   24.0019 C.ar    1  UNL1        0.0115
      4 C           5.1926   -2.5157   24.1968 C.ar    1  UNL1        0.0611
      5 C           5.1633   -1.8457   25.5385 C.ar    1  UNL1        0.1072
      6 N           5.9339   -2.4297   26.6853 N.ar    1  UNL1       -0.2386
      7 N           7.0930   -5.5854   28.2236 N.am    1  UNL1       -0.2980
      8 C           7.5043   -4.2675   27.6373 C.2     1  UNL1        0.2636
      9 O           8.6862   -3.5334   28.1978 O.2     1  UNL1       -0.2685
     10 H           6.3172   -6.0672   27.8556 H       1  UNL1        0.1498
     11 C           8.8015   -6.8297   28.4040 C.3     1  UNL1        0.0248
     12 C           7.8635   -6.1694   29.3705 C.3     1  UNL1        0.1116
     13 C           6.9255   -5.5091   30.3369 C.3     1  UNL1        0.1625
     14 O           7.6961   -6.0930   31.4838 O.3     1  UNL1       -0.3502
     15 C           8.6341   -6.7533   30.5173 C.3     1  UNL1        0.1625
     16 C           4.4220   -1.9318   23.0499 C.1     1  UNL1       -0.0582
     17 C           3.6515   -1.3479   21.9030 C.1     1  UNL1       -0.0596
     18 C           2.8809   -0.7639   20.7561 C.ar    1  UNL1        0.0442
     19 C           1.5156   -0.1868   20.9863 C.ar    1  UNL1        0.0084
     20 C           0.7451    0.3971   19.8394 C.ar    1  UNL1        0.0029
     21 C           1.3399    0.4038   18.4624 C.ar    1  UNL1        0.0297
     22 C           2.7051   -0.1733   18.2322 C.ar    1  UNL1        0.1408
     23 F           3.2998   -0.1665   16.8552 F       1  UNL1       -0.2042
     24 C           3.4756   -0.7572   19.3791 C.ar    1  UNL1        0.0379
@<TRIPOS>BOND
     1    11    12    1
     2    12     7    1
     3     7     8   am
     4     8     9    2
     5     8     1    1
     6     1     2   ar
     7     2     3   ar
     8     3     4   ar
     9     4    16    1
    10    16    17    3
    11    17    18    1
    12    18    19   ar
    13    19    20   ar
    14    20    21   ar
    15    21    22   ar
    16    22    23    1
    17    22    24   ar
    18     4     5   ar
    19     5     6   ar
    20    12    13    1
    21    13    14    1
    22    14    15    1
    23    15    12    1
    24     6     1   ar
    25    24    18   ar
    26     7    10    1
@<TRIPOS>MOLECULE
*****
 24 26 0 0 0
SMALL
GASTEIGER

@<TRIPOS>ATOM
      1 C          -1.1507    3.1653   23.6414 C.ar    1  UNL1        0.1345
      2 C          -0.2150    2.2480   24.3714 C.ar    1  UNL1        0.0244
      3 C           0.7187    1.3616   23.6018 C.ar    1  UNL1        0.0115
      4 C           0.7168    1.3926   22.1021 C.ar    1  UNL1        0.0611
      5 C          -0.2189    2.3100   21.3721 C.ar    1  UNL1        0.1072
      6 N          -1.1526    3.1963   22.1418 N.ar    1  UNL1       -0.2386
      7 N          -3.4761    3.5858   24.7211 N.am    1  UNL1       -0.2980
      8 C          -2.0844    4.0518   24.4111 C.2     1  UNL1        0.2636
      9 O          -1.6265    5.4042   24.8708 O.2     1  UNL1       -0.2685
     10 H          -3.7766    2.6982   24.4195 H       1  UNL1        0.1498
     11 C          -4.9303    5.0411   24.2042 C.3     1  UNL1        0.0248
     12 C          -4.4099    4.4723   25.4908 C.3     1  UNL1        0.1116
     13 C          -3.8894    3.9034   26.7775 C.3     1  UNL1        0.1625
     14 O          -4.8232    4.7898   27.5471 O.3     1  UNL1       -0.3502
     15 C          -5.3436    5.3587   26.2604 C.3     1  UNL1        0.1625
     16 C           1.6506    0.5061   21.3324 C.1     1  UNL1       -0.0582
     17 C           2.5843   -0.3803   20.5628 C.1     1  UNL1       -0.0596
     18 C           3.5181   -1.2668   19.7931 C.ar    1  UNL1        0.0442
     19 C           4.7094   -0.6774   19.0979 C.ar    1  UNL1        0.0084
     20 C           5.6431   -1.5638   18.3283 C.ar    1  UNL1        0.0029
     21 C           5.3855   -3.0396   18.2539 C.ar    1  UNL1        0.0297
     22 C           4.1941   -3.6290   18.9490 C.ar    1  UNL1        0.1408
     23 F           3.9365   -5.1049   18.8746 F       1  UNL1       -0.2042
     24 C           3.2604   -2.7426   19.7187 C.ar    1  UNL1        0.0379
@<TRIPOS>BOND
     1    11    12    1
     2    12     7    1
     3     7     8   am
     4     8     9    2
     5     8     1    1
     6     1     2   ar
     7     2     3   ar
     8     3     4   ar
     9     4    16    1
    10    16    17    3
    11    17    18    1
    12    18    19   ar
    13    19    20   ar
    14    20    21   ar
    15    21    22   ar
    16    22    23    1
    17    22    24   ar
    18     4     5   ar
    19     5     6   ar
    20    12    13    1
    21    13    14    1
    22    14    15    1
    23    15    12    1
    24     6     1   ar
    25    24    18   ar
    26     7    10    1
@<TRIPOS>MOLECULE
*****
 24 26 0 0 0
SMALL
GASTEIGER

@<TRIPOS>ATOM
      1 C           6.7186   -2.7245   32.1294 C.ar    1  UNL1        0.1345
      2 C           7.5310   -1.6498   32.7889 C.ar    1  UNL1        0.0244
      3 C           6.9157   -0.7917   33.8543 C.ar    1  UNL1        0.0115
      4 C           5.4881   -1.0084   34.2603 C.ar    1  UNL1        0.0611
      5 C           4.6757   -2.0831   33.6009 C.ar    1  UNL1        0.1072
      6 N           5.2909   -2.9412   32.5354 N.ar    1  UNL1       -0.2386
      7 N           6.7998   -4.9610   30.8098 N.am    1  UNL1       -0.2980
      8 C           7.3338   -3.5826   31.0639 C.2     1  UNL1        0.2636
      9 O           8.4831   -3.0621   30.2525 O.2     1  UNL1       -0.2685
     10 H           6.0455   -5.3026   31.3424 H       1  UNL1        0.1498
     11 C           6.4151   -5.3038   28.7520 C.3     1  UNL1        0.0248
     12 C           7.4150   -5.8191   29.7443 C.3     1  UNL1        0.1116
     13 C           8.4149   -6.3344   30.7366 C.3     1  UNL1        0.1625
     14 O           9.0300   -7.1925   29.6711 O.3     1  UNL1       -0.3502
     15 C           8.0302   -6.6771   28.6788 C.3     1  UNL1        0.1625
     16 C           4.8729   -0.1503   35.3259 C.1     1  UNL1       -0.0582
     17 C           4.2577    0.7077   36.3913 C.1     1  UNL1       -0.0596
     18 C           3.6424    1.5658   37.4569 C.ar    1  UNL1        0.0442
     19 C           4.2841    2.8678   37.8346 C.ar    1  UNL1        0.0084
     20 C           3.6689    3.7258   38.9001 C.ar    1  UNL1        0.0029
     21 C           2.4120    3.2818   39.5878 C.ar    1  UNL1        0.0297
     22 C           1.7703    1.9797   39.2100 C.ar    1  UNL1        0.1408
     23 F           0.5133    1.5357   39.8977 F       1  UNL1       -0.2042
     24 C           2.3855    1.1217   38.1445 C.ar    1  UNL1        0.0379
@<TRIPOS>BOND
     1    11    12    1
     2    12     7    1
     3     7     8   am
     4     8     9    2
     5     8     1    1
     6     1     2   ar
     7     2     3   ar
     8     3     4   ar
     9     4    16    1
    10    16    17    3
    11    17    18    1
    12    18    19   ar
    13    19    20   ar
    14    20    21   ar
    15    21    22   ar
    16    22    23    1
    17    22    24   ar
    18     4     5   ar
    19     5     6   ar
    20    12    13    1
    21    13    14    1
    22    14    15    1
    23    15    12    1
    24     6     1   ar
    25    24    18   ar
    26     7    10    1
@<TRIPOS>MOLECULE
*****
 24 26 0 0 0
SMALL
GASTEIGER

@<TRIPOS>ATOM
      1 C           4.9044   -0.3589   34.6174 C.ar    1  UNL1        0.1345
      2 C           6.3265   -0.2896   34.1455 C.ar    1  UNL1        0.0244
      3 C           6.8487   -1.3164   33.1848 C.ar    1  UNL1        0.0115
      4 C           5.9488   -2.4124   32.6960 C.ar    1  UNL1        0.0611
      5 C           4.5267   -2.4816   33.1679 C.ar    1  UNL1        0.1072
      6 N           4.0045   -1.4549   34.1286 N.ar    1  UNL1       -0.2386
      7 N           4.8795    0.6926   36.9931 N.am    1  UNL1       -0.2980
      8 C           4.3821    0.6679   35.5782 C.2     1  UNL1        0.2636
      9 O           3.3625    1.6699   35.1240 O.2     1  UNL1       -0.2685
     10 H           5.5487    0.0349   37.2912 H       1  UNL1        0.1498
     11 C           5.4921    2.6322   37.5953 C.3     1  UNL1        0.0248
     12 C           4.3572    1.7194   37.9539 C.3     1  UNL1        0.1116
     13 C           3.2223    0.8066   38.3126 C.3     1  UNL1        0.1625
     14 O           2.7001    1.8333   39.2733 O.3     1  UNL1       -0.3502
     15 C           3.8350    2.7461   38.9146 C.3     1  UNL1        0.1625
     16 C           6.4711   -3.4391   31.7352 C.1     1  UNL1       -0.0582
     17 C           6.9933   -4.4659   30.7745 C.1     1  UNL1       -0.0596
     18 C           7.5156   -5.4927   29.8137 C.ar    1  UNL1        0.0442
     19 C           8.6319   -6.4060   30.2256 C.ar    1  UNL1        0.0084
     20 C           9.1541   -7.4327   29.2648 C.ar    1  UNL1        0.0029
     21 C           8.5600   -7.5461   27.8921 C.ar    1  UNL1        0.0297
     22 C           7.4437   -6.6328   27.4803 C.ar    1  UNL1        0.1408
     23 F           6.8496   -6.7462   26.1076 F       1  UNL1       -0.2042
     24 C           6.9215   -5.6061   28.4410 C.ar    1  UNL1        0.0379
@<TRIPOS>BOND
     1    11    12    1
     2    12     7    1
     3     7     8   am
     4     8     9    2
     5     8     1    1
     6     1     2   ar
     7     2     3   ar
     8     3     4   ar
     9     4    16    1
    10    16    17    3
    11    17    18    1
    12    18    19   ar
    13    19    20   ar
    14    20    21   ar
    15    21    22   ar
    16    22    23    1
    17    22    24   ar
    18     4     5   ar
    19     5     6   ar
    20    12    13    1
    21    13    14    1
    22    14    15    1
    23    15    12    1
    24     6     1   ar
    25    24    18   ar
    26     7    10    1
@<TRIPOS>MOLECULE
*****
 24 26 0 0 0
SMALL
GASTEIGER

@<TRIPOS>ATOM
      1 C         -14.7697    1.3362   18.9695 C.ar    1  UNL1        0.1345
      2 C         -15.5172    0.0879   19.3343 C.ar    1  UNL1        0.0244
      3 C         -14.8658   -1.2527   19.1653 C.ar    1  UNL1        0.0115
      4 C         -13.4671   -1.3450   18.6316 C.ar    1  UNL1        0.0611
      5 C         -12.7196   -0.0967   18.2668 C.ar    1  UNL1        0.1072
      6 N         -13.3709    1.2438   18.4358 N.ar    1  UNL1       -0.2386
      7 N         -16.7773    2.7773   19.7712 N.am    1  UNL1       -0.2980
      8 C         -15.4210    2.6768   19.1385 C.2     1  UNL1        0.2636
      9 O         -14.7160    3.9169   18.6748 O.2     1  UNL1       -0.2685
     10 H         -17.2401    1.9634   20.0755 H       1  UNL1        0.1498
     11 C         -18.0612    3.9812   18.5870 C.3     1  UNL1        0.0248
     12 C         -17.4286    4.1180   19.9402 C.3     1  UNL1        0.1116
     13 C         -16.7961    4.2548   21.2934 C.3     1  UNL1        0.1625
     14 O         -17.4474    5.5954   21.4623 O.3     1  UNL1       -0.3502
     15 C         -18.0799    5.4586   20.1091 C.3     1  UNL1        0.1625
     16 C         -12.8158   -2.6857   18.4626 C.1     1  UNL1       -0.0582
     17 C         -12.1644   -4.0262   18.2936 C.1     1  UNL1       -0.0596
     18 C         -11.5131   -5.3669   18.1246 C.ar    1  UNL1        0.0442
     19 C         -12.0119   -6.3162   17.0758 C.ar    1  UNL1        0.0084
     20 C         -11.3606   -7.6567   16.9069 C.ar    1  UNL1        0.0029
     21 C         -10.2105   -8.0481   17.7868 C.ar    1  UNL1        0.0297
     22 C          -9.7117   -7.0988   18.8356 C.ar    1  UNL1        0.1408
     23 F          -8.5616   -7.4901   19.7155 F       1  UNL1       -0.2042
     24 C         -10.3630   -5.7582   19.0045 C.ar    1  UNL1        0.0379
@<TRIPOS>BOND
     1    11    12    1
     2    12     7    1
     3     7     8   am
     4     8     9    2
     5     8     1    1
     6     1     2   ar
     7     2     3   ar
     8     3     4   ar
     9     4    16    1
    10    16    17    3
    11    17    18    1
    12    18    19   ar
    13    19    20   ar
    14    20    21   ar
    15    21    22   ar
    16    22    23    1
    17    22    24   ar
    18     4     5   ar
    19     5     6   ar
    20    12    13    1
    21    13    14    1
    22    14    15    1
    23    15    12    1
    24     6     1   ar
    25    24    18   ar
    26     7    10    1
@<TRIPOS>MOLECULE
*****
 24 26 0 0 0
SMALL
GASTEIGER

@<TRIPOS>ATOM
      1 C           5.0161   -1.1756   29.1551 C.ar    1  UNL1        0.1345
      2 C           6.0715   -1.9135   28.3862 C.ar    1  UNL1        0.0244
      3 C           5.8903   -2.1683   26.9192 C.ar    1  UNL1        0.0115
      4 C           4.6537   -1.6852   26.2211 C.ar    1  UNL1        0.0611
      5 C           3.5982   -0.9472   26.9901 C.ar    1  UNL1        0.1072
      6 N           3.7794   -0.6924   28.4571 N.ar    1  UNL1       -0.2386
      7 N           4.1182   -1.3079   31.5896 N.am    1  UNL1       -0.2980
      8 C           5.1972   -0.9207   30.6223 C.2     1  UNL1        0.2636
      9 O           6.4574   -0.2787   31.1219 O.2     1  UNL1       -0.2685
     10 H           3.2911   -1.7293   31.2616 H       1  UNL1        0.1498
     11 C           4.8908   -2.4216   33.2213 C.3     1  UNL1        0.0248
     12 C           4.2994   -1.0531   33.0567 C.3     1  UNL1        0.1116
     13 C           3.7079    0.3155   32.8920 C.3     1  UNL1        0.1625
     14 O           3.8891    0.5703   34.3591 O.3     1  UNL1       -0.3502
     15 C           4.4805   -0.7983   34.5237 C.3     1  UNL1        0.1625
     16 C           4.4725   -1.9400   24.7540 C.1     1  UNL1       -0.0582
     17 C           4.2914   -2.1948   23.2870 C.1     1  UNL1       -0.0596
     18 C           4.1102   -2.4496   21.8199 C.ar    1  UNL1        0.0442
     19 C           3.4011   -1.4412   20.9654 C.ar    1  UNL1        0.0084
     20 C           3.2200   -1.6960   19.4984 C.ar    1  UNL1        0.0029
     21 C           3.7480   -2.9593   18.8858 C.ar    1  UNL1        0.0297
     22 C           4.4572   -3.9678   19.7403 C.ar    1  UNL1        0.1408
     23 F           4.9852   -5.2311   19.1277 F       1  UNL1       -0.2042
     24 C           4.6383   -3.7129   21.2073 C.ar    1  UNL1        0.0379
@<TRIPOS>BOND
     1    11    12    1
     2    12     7    1
     3     7     8   am
     4     8     9    2
     5     8     1    1
     6     1     2   ar
     7     2     3   ar
     8     3     4   ar
     9     4    16    1
    10    16    17    3
    11    17    18    1
    12    18    19   ar
    13    19    20   ar
    14    20    21   ar
    15    21    22   ar
    16    22    23    1
    17    22    24   ar
    18     4     5   ar
    19     5     6   ar
    20    12    13    1
    21    13    14    1
    22    14    15    1
    23    15    12    1
    24     6     1   ar
    25    24    18   ar
    26     7    10    1
@<TRIPOS>MOLECULE
*****
 24 26 0 0 0
SMALL
GASTEIGER

@<TRIPOS>ATOM
      1 C           5.9624   -2.6816   27.2422 C.ar    1  UNL1        0.1345
      2 C           6.4552   -3.1579   25.9080 C.ar    1  UNL1        0.0244
      3 C           5.7771   -2.6998   24.6509 C.ar    1  UNL1        0.0115
      4 C           4.6062   -1.7654   24.7281 C.ar    1  UNL1        0.0611
      5 C           4.1134   -1.2892   26.0623 C.ar    1  UNL1        0.1072
      6 N           4.7915   -1.7472   27.3194 N.ar    1  UNL1       -0.2386
      7 N           6.7741   -2.2032   29.6634 N.am    1  UNL1       -0.2980
      8 C           6.6405   -3.1397   28.4994 C.2     1  UNL1        0.2636
      9 O           7.1850   -4.5343   28.5924 O.2     1  UNL1       -0.2685
     10 H           6.4167   -1.2879   29.6024 H       1  UNL1        0.1498
     11 C           6.1314   -3.1154   31.4675 C.3     1  UNL1        0.0248
     12 C           7.4522   -2.6613   30.9206 C.3     1  UNL1        0.1116
     13 C           8.7730   -2.2071   30.3737 C.3     1  UNL1        0.1625
     14 O           9.4510   -2.6652   31.6308 O.3     1  UNL1       -0.3502
     15 C           8.1302   -3.1193   32.1777 C.3     1  UNL1        0.1625
     16 C           3.9281   -1.3073   23.4709 C.1     1  UNL1       -0.0582
     17 C           3.2500   -0.8493   22.2138 C.1     1  UNL1       -0.0596
     18 C           2.5719   -0.3912   20.9566 C.ar    1  UNL1        0.0442
     19 C           1.2028    0.2180   21.0222 C.ar    1  UNL1        0.0084
     20 C           0.5248    0.6760   19.7650 C.ar    1  UNL1        0.0029
     21 C           1.2158    0.5248   18.4423 C.ar    1  UNL1        0.0297
     22 C           2.5849   -0.0844   18.3767 C.ar    1  UNL1        0.1408
     23 F           3.2760   -0.2356   17.0540 F       1  UNL1       -0.2042
     24 C           3.2630   -0.5425   19.6339 C.ar    1  UNL1        0.0379
@<TRIPOS>BOND
     1    11    12    1
     2    12     7    1
     3     7     8   am
     4     8     9    2
     5     8     1    1
     6     1     2   ar
     7     2     3   ar
     8     3     4   ar
     9     4    16    1
    10    16    17    3
    11    17    18    1
    12    18    19   ar
    13    19    20   ar
    14    20    21   ar
    15    21    22   ar
    16    22    23    1
    17    22    24   ar
    18     4     5   ar
    19     5     6   ar
    20    12    13    1
    21    13    14    1
    22    14    15    1
    23    15    12    1
    24     6     1   ar
    25    24    18   ar
    26     7    10    1
