@<TRIPOS>MOLECULE
*****
 37 41 0 0 0
SMALL
GASTEIGER

@<TRIPOS>ATOM
      1 C         -15.4546    5.0724   23.7754 C.ar    1  UNL1        0.0804
      2 C         -14.2171    5.5941   23.1072 C.ar    1  UNL1        0.0772
      3 C         -13.2803    6.6235   23.6666 C.3     1  UNL1        0.0537
      4 N         -14.0809    4.9058   21.7815 N.ar    1  UNL1       -0.2280
      5 C         -15.2342    3.9586   21.6303 C.ar    1  UNL1        0.1820
      6 C         -15.6209    3.0157   20.5297 C.ar    1  UNL1        0.1733
      7 C         -16.8567    2.1758   20.6614 C.ar    1  UNL1        0.0416
      8 C         -17.7056    2.2787   21.8937 C.ar    1  UNL1        0.0223
      9 C         -17.3189    3.2216   22.9943 C.ar    1  UNL1        0.0816
     10 N         -16.0832    4.0616   22.8626 N.ar    1  UNL1       -0.2867
     11 C         -17.0086    6.3203   27.8100 C.ar    1  UNL1        0.1345
     12 C         -15.7520    5.5075   27.7089 C.ar    1  UNL1        0.0238
     13 C         -15.2340    5.0915   26.3640 C.ar    1  UNL1        0.0047
     14 C         -15.9726    5.4883   25.1202 C.ar    1  UNL1        0.0365
     15 C         -17.2292    6.3012   25.2214 C.ar    1  UNL1        0.1004
     16 N         -17.7471    6.7172   26.5662 N.ar    1  UNL1       -0.2392
     17 C         -19.3444    6.6010   31.0061 C.3     1  UNL1        0.1110
     18 N         -18.8264    6.1850   29.6612 N.am    1  UNL1       -0.2979
     19 C         -17.5266    6.7363   29.1549 C.2     1  UNL1        0.2636
     20 O         -16.7447    7.7036   29.9933 O.2     1  UNL1       -0.2685
     21 H         -19.3396    5.5501   29.1109 H       1  UNL1        0.1498
     22 O         -14.7719    2.9128   19.2973 O.3     1  UNL1       -0.4675
     23 C         -15.0112    1.8075   18.3119 C.3     1  UNL1        0.2344
     24 C         -14.2567    0.5169   18.4348 C.ar    1  UNL1        0.0486
     25 C         -14.9333   -0.6964   19.0007 C.ar    1  UNL1        0.0016
     26 C         -14.1789   -1.9871   19.1235 C.ar    1  UNL1       -0.0001
     27 C         -12.7479   -2.0644   18.6805 C.ar    1  UNL1        0.0022
     28 C         -12.0713   -0.8512   18.1146 C.ar    1  UNL1        0.0294
     29 C         -12.8257    0.4395   17.9917 C.ar    1  UNL1        0.1396
     30 F         -12.1492    1.6528   17.4259 F       1  UNL1       -0.2044
     31 C         -11.9935   -3.3550   18.8033 C.ar    1  UNL1        0.0002
     32 C         -12.7380   -4.6448   18.9837 C.ar    1  UNL1        0.0023
     33 C         -11.9836   -5.9354   19.1065 C.ar    1  UNL1        0.0296
     34 C         -10.4847   -5.9364   19.0490 C.ar    1  UNL1        0.1401
     35 F          -9.7303   -7.2270   19.1718 F       1  UNL1       -0.2042
     36 C          -9.7402   -4.6467   18.8686 C.ar    1  UNL1        0.0296
     37 C         -10.4946   -3.3560   18.7458 C.ar    1  UNL1        0.0023
@<TRIPOS>BOND
     1    17    18    1
     2    18    19   am
     3    19    20    2
     4    19    11    1
     5    11    12   ar
     6    12    13   ar
     7    13    14   ar
     8    14     1    1
     9     1     2   ar
    10     2     3    1
    11     2     4   ar
    12     4     5   ar
    13     5     6   ar
    14     6    22    1
    15    22    23    1
    16    23    24    1
    17    24    25   ar
    18    25    26   ar
    19    26    27   ar
    20    27    31    1
    21    31    32   ar
    22    32    33   ar
    23    33    34   ar
    24    34    35    1
    25    34    36   ar
    26    36    37   ar
    27    27    28   ar
    28    28    29   ar
    29    29    30    1
    30     6     7   ar
    31     7     8   ar
    32     8     9   ar
    33     9    10   ar
    34    14    15   ar
    35    15    16   ar
    36    16    11   ar
    37    10     1   ar
    38    10     5   ar
    39    29    24   ar
    40    37    31   ar
    41    18    21    1
@<TRIPOS>MOLECULE
*****
 37 41 0 0 0
SMALL
GASTEIGER

@<TRIPOS>ATOM
      1 C           6.9793   -4.1892   23.9966 C.ar    1  UNL1        0.0804
      2 C           6.5908   -3.5610   25.3022 C.ar    1  UNL1        0.0772
      3 C           5.7861   -2.3066   25.4721 C.3     1  UNL1        0.0537
      4 N           7.1484   -4.4075   26.4079 N.ar    1  UNL1       -0.2280
      5 C           7.8814   -5.5589   25.7856 C.ar    1  UNL1        0.1820
      6 C           8.6305   -6.7127   26.3835 C.ar    1  UNL1        0.1733
      7 C           9.2751   -7.7316   25.4912 C.ar    1  UNL1        0.0416
      8 C           9.1706   -7.5967   24.0010 C.ar    1  UNL1        0.0223
      9 C           8.4215   -6.4429   23.4031 C.ar    1  UNL1        0.0816
     10 N           7.7769   -5.4240   24.2954 N.ar    1  UNL1       -0.2867
     11 C           5.9352   -2.6414   19.9021 C.ar    1  UNL1        0.1345
     12 C           4.8545   -3.1495   20.8100 C.ar    1  UNL1        0.0238
     13 C           5.2026   -3.6654   22.1748 C.ar    1  UNL1        0.0047
     14 C           6.6312   -3.6733   22.6318 C.ar    1  UNL1        0.0365
     15 C           7.7118   -3.1652   21.7240 C.ar    1  UNL1        0.1004
     16 N           7.3638   -2.6493   20.3592 N.ar    1  UNL1       -0.2392
     17 C           3.8752   -1.0428   16.9104 C.3     1  UNL1        0.1110
     18 N           4.2233   -1.5587   18.2752 N.am    1  UNL1       -0.2979
     19 C           5.5871   -2.1255   18.5374 C.2     1  UNL1        0.2636
     20 O           6.6029   -2.1763   17.4348 O.2     1  UNL1       -0.2685
     21 H           3.5566   -1.5253   18.9988 H       1  UNL1        0.1498
     22 O           8.7350   -6.8476   27.8738 O.3     1  UNL1       -0.4675
     23 C           9.4948   -5.8267   28.6678 C.3     1  UNL1        0.2344
     24 C           8.7749   -4.9571   29.6555 C.ar    1  UNL1        0.0486
     25 C           9.5351   -3.9377   30.4511 C.ar    1  UNL1        0.0016
     26 C           8.8152   -3.0681   31.4388 C.ar    1  UNL1       -0.0001
     27 C           7.3351   -3.2179   31.6310 C.ar    1  UNL1        0.0022
     28 C           6.5750   -4.2373   30.8354 C.ar    1  UNL1        0.0294
     29 C           7.2948   -5.1069   29.8477 C.ar    1  UNL1        0.1396
     30 F           6.5347   -6.1263   29.0521 F       1  UNL1       -0.2044
     31 C           6.6153   -2.3484   32.6187 C.ar    1  UNL1        0.0002
     32 C           5.1773   -2.6197   32.9485 C.ar    1  UNL1        0.0023
     33 C           4.4574   -1.7501   33.9362 C.ar    1  UNL1        0.0296
     34 C           5.1754   -0.6092   34.5941 C.ar    1  UNL1        0.1401
     35 F           4.4555    0.2603   35.5818 F       1  UNL1       -0.2042
     36 C           6.6133   -0.3379   34.2643 C.ar    1  UNL1        0.0296
     37 C           7.3332   -1.2074   33.2765 C.ar    1  UNL1        0.0023
@<TRIPOS>BOND
     1    17    18    1
     2    18    19   am
     3    19    20    2
     4    19    11    1
     5    11    12   ar
     6    12    13   ar
     7    13    14   ar
     8    14     1    1
     9     1     2   ar
    10     2     3    1
    11     2     4   ar
    12     4     5   ar
    13     5     6   ar
    14     6    22    1
    15    22    23    1
    16    23    24    1
    17    24    25   ar
    18    25    26   ar
    19    26    27   ar
    20    27    31    1
    21    31    32   ar
    22    32    33   ar
    23    33    34   ar
    24    34    35    1
    25    34    36   ar
    26    36    37   ar
    27    27    28   ar
    28    28    29   ar
    29    29    30    1
    30     6     7   ar
    31     7     8   ar
    32     8     9   ar
    33     9    10   ar
    34    14    15   ar
    35    15    16   ar
    36    16    11   ar
    37    10     1   ar
    38    10     5   ar
    39    29    24   ar
    40    37    31   ar
    41    18    21    1
@<TRIPOS>MOLECULE
*****
 37 41 0 0 0
SMALL
GASTEIGER

@<TRIPOS>ATOM
      1 C           3.3787    0.7515   19.4368 C.ar    1  UNL1        0.0804
      2 C           4.6113    1.5090   19.0406 C.ar    1  UNL1        0.0772
      3 C           4.7533    3.0017   18.9984 C.3     1  UNL1        0.0537
      4 N           5.6769    0.5118   18.6941 N.ar    1  UNL1       -0.2280
      5 C           5.1028   -0.8621   18.8761 C.ar    1  UNL1        0.1820
      6 C           5.6900   -2.2289   18.6832 C.ar    1  UNL1        0.1733
      7 C           4.8568   -3.4474   18.9493 C.ar    1  UNL1        0.0416
      8 C           3.4365   -3.2993   19.4083 C.ar    1  UNL1        0.0223
      9 C           2.8494   -1.9325   19.6013 C.ar    1  UNL1        0.0816
     10 N           3.6825   -0.7139   19.3352 N.ar    1  UNL1       -0.2867
     11 C          -0.5421    2.5579   20.7075 C.ar    1  UNL1        0.1345
     12 C          -0.1110    2.6343   19.2728 C.ar    1  UNL1        0.0238
     13 C           1.1960    2.0322   18.8493 C.ar    1  UNL1        0.0047
     14 C           2.0718    1.3536   19.8603 C.ar    1  UNL1        0.0365
     15 C           1.6407    1.2772   21.2950 C.ar    1  UNL1        0.1004
     16 N           0.3338    1.8793   21.7185 N.ar    1  UNL1       -0.2392
     17 C          -4.4268    3.3526   20.8712 C.3     1  UNL1        0.1110
     18 N          -3.1199    2.7504   20.4476 N.am    1  UNL1       -0.2979
     19 C          -1.8490    3.1600   21.1310 C.2     1  UNL1        0.2636
     20 O          -1.8850    4.1718   22.2378 O.2     1  UNL1       -0.2685
     21 H          -3.0963    2.0864   19.7212 H       1  UNL1        0.1498
     22 O           7.1103   -2.3770   18.2242 O.3     1  UNL1       -0.4675
     23 C           8.2296   -2.3313   19.2218 C.3     1  UNL1        0.2344
     24 C           8.1721   -3.1859   20.4531 C.ar    1  UNL1        0.0486
     25 C           8.8764   -4.5101   20.4806 C.ar    1  UNL1        0.0016
     26 C           8.8189   -5.3647   21.7119 C.ar    1  UNL1       -0.0001
     27 C           8.0571   -4.8952   22.9158 C.ar    1  UNL1        0.0022
     28 C           7.3529   -3.5712   22.8884 C.ar    1  UNL1        0.0294
     29 C           7.4103   -2.7164   21.6570 C.ar    1  UNL1        0.1396
     30 F           6.7061   -1.3924   21.6296 F       1  UNL1       -0.2044
     31 C           7.9996   -5.7499   24.1472 C.ar    1  UNL1        0.0002
     32 C           8.5760   -7.1346   24.1267 C.ar    1  UNL1        0.0023
     33 C           8.5185   -7.9893   25.3580 C.ar    1  UNL1        0.0296
     34 C           7.8847   -7.4592   26.6099 C.ar    1  UNL1        0.1401
     35 F           7.8272   -8.3138   27.8413 F       1  UNL1       -0.2042
     36 C           7.3084   -6.0745   26.6305 C.ar    1  UNL1        0.0296
     37 C           7.3658   -5.2198   25.3991 C.ar    1  UNL1        0.0023
@<TRIPOS>BOND
     1    17    18    1
     2    18    19   am
     3    19    20    2
     4    19    11    1
     5    11    12   ar
     6    12    13   ar
     7    13    14   ar
     8    14     1    1
     9     1     2   ar
    10     2     3    1
    11     2     4   ar
    12     4     5   ar
    13     5     6   ar
    14     6    22    1
    15    22    23    1
    16    23    24    1
    17    24    25   ar
    18    25    26   ar
    19    26    27   ar
    20    27    31    1
    21    31    32   ar
    22    32    33   ar
    23    33    34   ar
    24    34    35    1
    25    34    36   ar
    26    36    37   ar
    27    27    28   ar
    28    28    29   ar
    29    29    30    1
    30     6     7   ar
    31     7     8   ar
    32     8     9   ar
    33     9    10   ar
    34    14    15   ar
    35    15    16   ar
    36    16    11   ar
    37    10     1   ar
    38    10     5   ar
    39    29    24   ar
    40    37    31   ar
    41    18    21    1
@<TRIPOS>MOLECULE
*****
 37 41 0 0 0
SMALL
GASTEIGER

@<TRIPOS>ATOM
      1 C           6.5066   -2.8902   22.0974 C.ar    1  UNL1        0.0804
      2 C           7.1510   -1.5575   21.8552 C.ar    1  UNL1        0.0772
      3 C           8.2378   -0.9399   22.6844 C.3     1  UNL1        0.0537
      4 N           6.5179   -0.9508   20.6382 N.ar    1  UNL1       -0.2280
      5 C           5.4822   -1.9087   20.1283 C.ar    1  UNL1        0.1820
      6 C           4.5445   -1.8442   18.9592 C.ar    1  UNL1        0.1733
      7 C           3.5999   -2.9783   18.6920 C.ar    1  UNL1        0.0416
      8 C           3.5929   -4.1769   19.5939 C.ar    1  UNL1        0.0223
      9 C           4.5306   -4.2413   20.7629 C.ar    1  UNL1        0.0816
     10 N           5.4752   -3.1072   21.0301 N.ar    1  UNL1       -0.2867
     11 C           7.4941   -5.7375   25.4393 C.ar    1  UNL1        0.1345
     12 C           8.0468   -5.9735   24.0649 C.ar    1  UNL1        0.0238
     13 C           7.7176   -5.0244   22.9510 C.ar    1  UNL1        0.0047
     14 C           6.8358   -3.8393   23.2113 C.ar    1  UNL1        0.0365
     15 C           6.2832   -3.6032   24.5857 C.ar    1  UNL1        0.1004
     16 N           6.6123   -4.5523   25.6996 N.ar    1  UNL1       -0.2392
     17 C           8.1584   -9.1143   27.4155 C.3     1  UNL1        0.1110
     18 N           7.8292   -8.1652   26.3015 N.am    1  UNL1       -0.2979
     19 C           7.8233   -6.6865   26.5532 C.2     1  UNL1        0.2636
     20 O           8.1466   -6.1569   27.9189 O.2     1  UNL1       -0.2685
     21 H           7.6170   -8.5128   25.4052 H       1  UNL1        0.1498
     22 O           4.5515   -0.6456   18.0574 O.3     1  UNL1       -0.4675
     23 C           3.3526    0.2538   17.9960 C.3     1  UNL1        0.2344
     24 C           2.6278    0.6245   19.2558 C.ar    1  UNL1        0.0486
     25 C           1.1996    0.2088   19.4495 C.ar    1  UNL1        0.0016
     26 C           0.4748    0.5795   20.7093 C.ar    1  UNL1       -0.0001
     27 C           1.1782    1.3659   21.7756 C.ar    1  UNL1        0.0022
     28 C           2.6064    1.7816   21.5820 C.ar    1  UNL1        0.0294
     29 C           3.3312    1.4109   20.3221 C.ar    1  UNL1        0.1396
     30 F           4.7594    1.8266   20.1285 F       1  UNL1       -0.2044
     31 C           0.4534    1.7365   23.0354 C.ar    1  UNL1        0.0002
     32 C          -0.5306    2.8687   23.0292 C.ar    1  UNL1        0.0023
     33 C          -1.2553    3.2394   24.2890 C.ar    1  UNL1        0.0296
     34 C          -0.9962    2.4780   25.5552 C.ar    1  UNL1        0.1401
     35 F          -1.7209    2.8486   26.8150 F       1  UNL1       -0.2042
     36 C          -0.0122    1.3458   25.5614 C.ar    1  UNL1        0.0296
     37 C           0.7126    0.9751   24.3015 C.ar    1  UNL1        0.0023
@<TRIPOS>BOND
     1    17    18    1
     2    18    19   am
     3    19    20    2
     4    19    11    1
     5    11    12   ar
     6    12    13   ar
     7    13    14   ar
     8    14     1    1
     9     1     2   ar
    10     2     3    1
    11     2     4   ar
    12     4     5   ar
    13     5     6   ar
    14     6    22    1
    15    22    23    1
    16    23    24    1
    17    24    25   ar
    18    25    26   ar
    19    26    27   ar
    20    27    31    1
    21    31    32   ar
    22    32    33   ar
    23    33    34   ar
    24    34    35    1
    25    34    36   ar
    26    36    37   ar
    27    27    28   ar
    28    28    29   ar
    29    29    30    1
    30     6     7   ar
    31     7     8   ar
    32     8     9   ar
    33     9    10   ar
    34    14    15   ar
    35    15    16   ar
    36    16    11   ar
    37    10     1   ar
    38    10     5   ar
    39    29    24   ar
    40    37    31   ar
    41    18    21    1
@<TRIPOS>MOLECULE
*****
 37 41 0 0 0
SMALL
GASTEIGER

@<TRIPOS>ATOM
      1 C           0.4353    1.9476   28.9170 C.ar    1  UNL1        0.0804
      2 C          -0.5446    0.9596   28.3569 C.ar    1  UNL1        0.0772
      3 C          -1.0777   -0.2511   29.0641 C.3     1  UNL1        0.0537
      4 N          -0.8977    1.3948   26.9655 N.ar    1  UNL1       -0.2280
      5 C          -0.1360    2.6519   26.6658 C.ar    1  UNL1        0.1820
      6 C          -0.0861    3.5295   25.4503 C.ar    1  UNL1        0.1733
      7 C           0.7875    4.7488   25.4410 C.ar    1  UNL1        0.0416
      8 C           1.6113    5.0904   26.6470 C.ar    1  UNL1        0.0223
      9 C           1.5614    4.2128   27.8625 C.ar    1  UNL1        0.0816
     10 N           0.6878    2.9935   27.8718 N.ar    1  UNL1       -0.2867
     11 C           2.2916    1.8000   33.0137 C.ar    1  UNL1        0.1345
     12 C           1.2269    2.8117   32.7087 C.ar    1  UNL1        0.0238
     13 C           0.6082    2.8609   31.3431 C.ar    1  UNL1        0.0047
     14 C           1.0540    1.8984   30.2825 C.ar    1  UNL1        0.0365
     15 C           2.1187    0.8868   30.5876 C.ar    1  UNL1        0.1004
     16 N           2.7374    0.8376   31.9531 N.ar    1  UNL1       -0.2392
     17 C           2.8674    2.4032   36.8937 C.3     1  UNL1        0.1110
     18 N           2.2487    2.4524   35.5281 N.am    1  UNL1       -0.2979
     19 C           2.9103    1.7508   34.3792 C.2     1  UNL1        0.2636
     20 O           4.1907    1.0000   34.5959 O.2     1  UNL1       -0.2685
     21 H           1.4083    2.9451   35.3859 H       1  UNL1        0.1498
     22 O          -0.9100    3.1878   24.2442 O.3     1  UNL1       -0.4675
     23 C          -0.2906    3.2228   22.8785 C.3     1  UNL1        0.2344
     24 C           0.5398    2.0682   22.4019 C.ar    1  UNL1        0.0486
     25 C           1.6805    1.5689   23.2383 C.ar    1  UNL1        0.0016
     26 C           2.5110    0.4144   22.7617 C.ar    1  UNL1       -0.0001
     27 C           2.2008   -0.2410   21.4486 C.ar    1  UNL1        0.0022
     28 C           1.0602    0.2581   20.6122 C.ar    1  UNL1        0.0294
     29 C           0.2296    1.4128   21.0888 C.ar    1  UNL1        0.1396
     30 F          -0.9110    1.9120   20.2523 F       1  UNL1       -0.2044
     31 C           3.0313   -1.3956   20.9720 C.ar    1  UNL1        0.0002
     32 C           3.0581   -1.7490   19.5144 C.ar    1  UNL1        0.0023
     33 C           3.8886   -2.9035   19.0377 C.ar    1  UNL1        0.0296
     34 C           4.6922   -3.7048   20.0186 C.ar    1  UNL1        0.1401
     35 F           5.5227   -4.8594   19.5419 F       1  UNL1       -0.2042
     36 C           4.6654   -3.3515   21.4761 C.ar    1  UNL1        0.0296
     37 C           3.8349   -2.1969   21.9528 C.ar    1  UNL1        0.0023
@<TRIPOS>BOND
     1    17    18    1
     2    18    19   am
     3    19    20    2
     4    19    11    1
     5    11    12   ar
     6    12    13   ar
     7    13    14   ar
     8    14     1    1
     9     1     2   ar
    10     2     3    1
    11     2     4   ar
    12     4     5   ar
    13     5     6   ar
    14     6    22    1
    15    22    23    1
    16    23    24    1
    17    24    25   ar
    18    25    26   ar
    19    26    27   ar
    20    27    31    1
    21    31    32   ar
    22    32    33   ar
    23    33    34   ar
    24    34    35    1
    25    34    36   ar
    26    36    37   ar
    27    27    28   ar
    28    28    29   ar
    29    29    30    1
    30     6     7   ar
    31     7     8   ar
    32     8     9   ar
    33     9    10   ar
    34    14    15   ar
    35    15    16   ar
    36    16    11   ar
    37    10     1   ar
    38    10     5   ar
    39    29    24   ar
    40    37    31   ar
    41    18    21    1
@<TRIPOS>MOLECULE
*****
 37 41 0 0 0
SMALL
GASTEIGER

@<TRIPOS>ATOM
      1 C           5.9064   -2.4967   30.3721 C.ar    1  UNL1        0.0804
      2 C           5.4431   -1.9339   29.0611 C.ar    1  UNL1        0.0772
      3 C           4.7346   -0.6266   28.8639 C.3     1  UNL1        0.0537
      4 N           5.8128   -2.9080   27.9819 N.ar    1  UNL1       -0.2280
      5 C           6.5045   -4.0728   28.6260 C.ar    1  UNL1        0.1820
      6 C           7.0892   -5.3321   28.0582 C.ar    1  UNL1        0.1733
      7 C           7.7317   -6.3371   28.9675 C.ar    1  UNL1        0.0416
      8 C           7.7896   -6.0829   30.4447 C.ar    1  UNL1        0.0223
      9 C           7.2050   -4.8237   31.0125 C.ar    1  UNL1        0.0816
     10 N           6.5624   -3.8186   30.1032 N.ar    1  UNL1       -0.2867
     11 C           5.4148   -0.5595   34.4039 C.ar    1  UNL1        0.1345
     12 C           4.5344   -1.7089   34.0117 C.ar    1  UNL1        0.0238
     13 C           4.6983   -2.3546   32.6677 C.ar    1  UNL1        0.0047
     14 C           5.7426   -1.8510   31.7160 C.ar    1  UNL1        0.0365
     15 C           6.6230   -0.7017   32.1082 C.ar    1  UNL1        0.1004
     16 N           6.4591   -0.0560   33.4522 N.ar    1  UNL1       -0.2392
     17 C           4.1899    1.9240   37.2467 C.3     1  UNL1        0.1110
     18 N           4.3538    1.2783   35.9028 N.am    1  UNL1       -0.2979
     19 C           5.2509    0.0862   35.7479 C.2     1  UNL1        0.2636
     20 O           5.9842   -0.4602   36.9369 O.2     1  UNL1       -0.2685
     21 H           3.8726    1.6369   35.1223 H       1  UNL1        0.1498
     22 O           7.0313   -5.5862   26.5810 O.3     1  UNL1       -0.4675
     23 C           7.8414   -4.7420   25.6424 C.3     1  UNL1        0.2344
     24 C           7.2284   -4.2348   24.3708 C.ar    1  UNL1        0.0486
     25 C           6.0332   -3.3299   24.4232 C.ar    1  UNL1        0.0016
     26 C           5.4202   -2.8228   23.1516 C.ar    1  UNL1       -0.0001
     27 C           6.0023   -3.2205   21.8276 C.ar    1  UNL1        0.0022
     28 C           7.1974   -4.1254   21.7752 C.ar    1  UNL1        0.0294
     29 C           7.8105   -4.6326   23.0468 C.ar    1  UNL1        0.1396
     30 F           9.0057   -5.5375   22.9944 F       1  UNL1       -0.2044
     31 C           5.3893   -2.7134   20.5560 C.ar    1  UNL1        0.0002
     32 C           6.2008   -2.6758   19.2950 C.ar    1  UNL1        0.0023
     33 C           5.5878   -2.1687   18.0234 C.ar    1  UNL1        0.0296
     34 C           4.1632   -1.6991   18.0127 C.ar    1  UNL1        0.1401
     35 F           3.5502   -1.1920   16.7412 F       1  UNL1       -0.2042
     36 C           3.3517   -1.7367   19.2737 C.ar    1  UNL1        0.0296
     37 C           3.9647   -2.2438   20.5453 C.ar    1  UNL1        0.0023
@<TRIPOS>BOND
     1    17    18    1
     2    18    19   am
     3    19    20    2
     4    19    11    1
     5    11    12   ar
     6    12    13   ar
     7    13    14   ar
     8    14     1    1
     9     1     2   ar
    10     2     3    1
    11     2     4   ar
    12     4     5   ar
    13     5     6   ar
    14     6    22    1
    15    22    23    1
    16    23    24    1
    17    24    25   ar
    18    25    26   ar
    19    26    27   ar
    20    27    31    1
    21    31    32   ar
    22    32    33   ar
    23    33    34   ar
    24    34    35    1
    25    34    36   ar
    26    36    37   ar
    27    27    28   ar
    28    28    29   ar
    29    29    30    1
    30     6     7   ar
    31     7     8   ar
    32     8     9   ar
    33     9    10   ar
    34    14    15   ar
    35    15    16   ar
    36    16    11   ar
    37    10     1   ar
    38    10     5   ar
    39    29    24   ar
    40    37    31   ar
    41    18    21    1
@<TRIPOS>MOLECULE
*****
 37 41 0 0 0
SMALL
GASTEIGER

@<TRIPOS>ATOM
      1 C           3.0407   -0.8087   21.2518 C.ar    1  UNL1        0.0804
      2 C           3.3614   -1.1581   22.6748 C.ar    1  UNL1        0.0772
      3 C           2.7776   -0.5096   23.8950 C.3     1  UNL1        0.0537
      4 N           4.3684   -2.2698   22.6635 N.ar    1  UNL1       -0.2280
      5 C           4.6700   -2.6075   21.2334 C.ar    1  UNL1        0.1820
      6 C           5.5858   -3.6205   20.6130 C.ar    1  UNL1        0.1733
      7 C           5.6811   -3.7306   19.1201 C.ar    1  UNL1        0.0416
      8 C           4.8605   -2.8276   18.2476 C.ar    1  UNL1        0.0223
      9 C           3.9447   -1.8145   18.8681 C.ar    1  UNL1        0.0816
     10 N           3.8494   -1.7044   20.3609 N.ar    1  UNL1       -0.2867
     11 C           0.1583    2.3689   19.8935 C.ar    1  UNL1        0.1345
     12 C           1.6361    2.6151   19.8184 C.ar    1  UNL1        0.0238
     13 C           2.5968    1.5559   20.2712 C.ar    1  UNL1        0.0047
     14 C           2.0800    0.2505   20.7990 C.ar    1  UNL1        0.0365
     15 C           0.6022    0.0043   20.8741 C.ar    1  UNL1        0.1004
     16 N          -0.3586    1.0635   20.4213 N.ar    1  UNL1       -0.2392
     17 C          -3.0960    4.6285   19.6616 C.3     1  UNL1        0.1110
     18 N          -2.1352    3.5693   20.1144 N.am    1  UNL1       -0.2979
     19 C          -0.8024    3.4281   19.4407 C.2     1  UNL1        0.2636
     20 O          -0.4304    4.3462   18.3143 O.2     1  UNL1       -0.2685
     21 H          -2.3793    2.9667   20.8537 H       1  UNL1        0.1498
     22 O           6.4063   -4.5236   21.4855 O.3     1  UNL1       -0.4675
     23 C           7.4788   -3.9479   22.3621 C.3     1  UNL1        0.2344
     24 C           7.3354   -3.9987   23.8543 C.ar    1  UNL1        0.0486
     25 C           7.1046   -2.7350   24.6291 C.ar    1  UNL1        0.0016
     26 C           6.9612   -2.7858   26.1213 C.ar    1  UNL1       -0.0001
     27 C           7.0485   -4.1001   26.8389 C.ar    1  UNL1        0.0022
     28 C           7.2793   -5.3637   26.0643 C.ar    1  UNL1        0.0294
     29 C           7.4228   -5.3130   24.5719 C.ar    1  UNL1        0.1396
     30 F           7.6535   -6.5765   23.7973 F       1  UNL1       -0.2044
     31 C           6.9051   -4.1509   28.3311 C.ar    1  UNL1        0.0002
     32 C           6.5788   -2.9025   29.0961 C.ar    1  UNL1        0.0023
     33 C           6.4354   -2.9533   30.5884 C.ar    1  UNL1        0.0296
     34 C           6.6182   -4.2523   31.3157 C.ar    1  UNL1        0.1401
     35 F           6.4748   -4.3031   32.8079 F       1  UNL1       -0.2042
     36 C           6.9445   -5.5007   30.5507 C.ar    1  UNL1        0.0296
     37 C           7.0879   -5.4500   29.0584 C.ar    1  UNL1        0.0023
@<TRIPOS>BOND
     1    17    18    1
     2    18    19   am
     3    19    20    2
     4    19    11    1
     5    11    12   ar
     6    12    13   ar
     7    13    14   ar
     8    14     1    1
     9     1     2   ar
    10     2     3    1
    11     2     4   ar
    12     4     5   ar
    13     5     6   ar
    14     6    22    1
    15    22    23    1
    16    23    24    1
    17    24    25   ar
    18    25    26   ar
    19    26    27   ar
    20    27    31    1
    21    31    32   ar
    22    32    33   ar
    23    33    34   ar
    24    34    35    1
    25    34    36   ar
    26    36    37   ar
    27    27    28   ar
    28    28    29   ar
    29    29    30    1
    30     6     7   ar
    31     7     8   ar
    32     8     9   ar
    33     9    10   ar
    34    14    15   ar
    35    15    16   ar
    36    16    11   ar
    37    10     1   ar
    38    10     5   ar
    39    29    24   ar
    40    37    31   ar
    41    18    21    1
@<TRIPOS>MOLECULE
*****
 37 41 0 0 0
SMALL
GASTEIGER

@<TRIPOS>ATOM
      1 C          -6.9372    5.1344   24.0045 C.ar    1  UNL1        0.0804
      2 C          -5.8744    5.1094   25.0627 C.ar    1  UNL1        0.0772
      3 C          -6.0418    5.5368   26.4908 C.3     1  UNL1        0.0537
      4 N          -4.6148    4.5819   24.4421 N.ar    1  UNL1       -0.2280
      5 C          -4.8992    4.2809   23.0003 C.ar    1  UNL1        0.1820
      6 C          -4.0366    3.7401   21.8988 C.ar    1  UNL1        0.1733
      7 C          -4.6093    3.5407   20.5269 C.ar    1  UNL1        0.0416
      8 C          -6.0446    3.8821   20.2565 C.ar    1  UNL1        0.0223
      9 C          -6.9072    4.4230   21.3580 C.ar    1  UNL1        0.0816
     10 N          -6.3345    4.6224   22.7299 N.ar    1  UNL1       -0.2867
     11 C         -11.1878    6.5049   24.5568 C.ar    1  UNL1        0.1345
     12 C         -10.0958    7.5123   24.3501 C.ar    1  UNL1        0.0238
     13 C          -8.6789    7.0555   24.1661 C.ar    1  UNL1        0.0047
     14 C          -8.3541    5.5913   24.1886 C.ar    1  UNL1        0.0365
     15 C          -9.4461    4.5839   24.3952 C.ar    1  UNL1        0.1004
     16 N         -10.8629    5.0407   24.5793 N.ar    1  UNL1       -0.2392
     17 C         -14.9841    7.3585   23.7761 C.3     1  UNL1        0.1110
     18 N         -13.5672    6.9017   23.5921 N.am    1  UNL1       -0.2979
     19 C         -12.6046    6.9618   24.7408 C.2     1  UNL1        0.2636
     20 O         -13.0588    7.4787   26.0737 O.2     1  UNL1       -0.2685
     21 H         -13.2691    6.5624   22.7173 H       1  UNL1        0.1498
     22 O          -2.6012    3.3986   22.1693 O.3     1  UNL1       -0.4675
     23 C          -1.5385    3.7926   21.1867 C.3     1  UNL1        0.2344
     24 C          -0.5512    2.7733   20.7007 C.ar    1  UNL1        0.0486
     25 C           0.0446    1.7882   21.6624 C.ar    1  UNL1        0.0016
     26 C           1.0319    0.7689   21.1764 C.ar    1  UNL1       -0.0001
     27 C           1.4234    0.7346   19.7288 C.ar    1  UNL1        0.0022
     28 C           0.8276    1.7195   18.7672 C.ar    1  UNL1        0.0294
     29 C          -0.1598    2.7389   19.2531 C.ar    1  UNL1        0.1396
     30 F          -0.7556    3.7239   18.2915 F       1  UNL1       -0.2044
     31 C           2.4107   -0.2847   19.2429 C.ar    1  UNL1        0.0002
     32 C           3.1312   -0.0716   17.9446 C.ar    1  UNL1        0.0023
     33 C           4.1185   -1.0909   17.4586 C.ar    1  UNL1        0.0296
     34 C           4.3853   -2.3234   18.2709 C.ar    1  UNL1        0.1401
     35 F           5.3726   -3.3427   17.7849 F       1  UNL1       -0.2042
     36 C           3.6648   -2.5366   19.5691 C.ar    1  UNL1        0.0296
     37 C           2.6775   -1.5173   20.0551 C.ar    1  UNL1        0.0023
@<TRIPOS>BOND
     1    17    18    1
     2    18    19   am
     3    19    20    2
     4    19    11    1
     5    11    12   ar
     6    12    13   ar
     7    13    14   ar
     8    14     1    1
     9     1     2   ar
    10     2     3    1
    11     2     4   ar
    12     4     5   ar
    13     5     6   ar
    14     6    22    1
    15    22    23    1
    16    23    24    1
    17    24    25   ar
    18    25    26   ar
    19    26    27   ar
    20    27    31    1
    21    31    32   ar
    22    32    33   ar
    23    33    34   ar
    24    34    35    1
    25    34    36   ar
    26    36    37   ar
    27    27    28   ar
    28    28    29   ar
    29    29    30    1
    30     6     7   ar
    31     7     8   ar
    32     8     9   ar
    33     9    10   ar
    34    14    15   ar
    35    15    16   ar
    36    16    11   ar
    37    10     1   ar
    38    10     5   ar
    39    29    24   ar
    40    37    31   ar
    41    18    21    1
@<TRIPOS>MOLECULE
*****
 37 41 0 0 0
SMALL
GASTEIGER

@<TRIPOS>ATOM
      1 C           2.9373    2.0889   34.2795 C.ar    1  UNL1        0.0804
      2 C           2.0188    2.8686   33.3859 C.ar    1  UNL1        0.0772
      3 C           1.3417    4.1620   33.7304 C.3     1  UNL1        0.0537
      4 N           1.8963    2.1278   32.0874 N.ar    1  UNL1       -0.2280
      5 C           2.7391    0.8902   32.1785 C.ar    1  UNL1        0.1820
      6 C           3.0037   -0.2179   31.2028 C.ar    1  UNL1        0.1733
      7 C           3.9118   -1.3500   31.5818 C.ar    1  UNL1        0.0416
      8 C           4.5552   -1.3740   32.9366 C.ar    1  UNL1        0.0223
      9 C           4.2905   -0.2659   33.9123 C.ar    1  UNL1        0.0816
     10 N           3.3825    0.8662   33.5333 N.ar    1  UNL1       -0.2867
     11 C           4.1455    3.2195   38.4643 C.ar    1  UNL1        0.1345
     12 C           3.0798    2.1871   38.2443 C.ar    1  UNL1        0.0238
     13 C           2.6771    1.8102   36.8494 C.ar    1  UNL1        0.0047
     14 C           3.3400    2.4658   35.6744 C.ar    1  UNL1        0.0365
     15 C           4.4057    3.4983   35.8943 C.ar    1  UNL1        0.1004
     16 N           4.8084    3.8751   37.2892 N.ar    1  UNL1       -0.2392
     17 C           4.3216    5.1601   41.9216 C.3     1  UNL1        0.1110
     18 N           3.9190    4.7832   40.5267 N.am    1  UNL1       -0.2979
     19 C           4.5482    3.5964   39.8592 C.2     1  UNL1        0.2636
     20 O           5.5801    2.7864   40.5866 O.2     1  UNL1       -0.2685
     21 H           3.2417    5.3148   40.0492 H       1  UNL1        0.1498
     22 O           2.3603   -0.1939   29.8480 O.3     1  UNL1       -0.4675
     23 C           2.8763    0.7347   28.7890 C.3     1  UNL1        0.2344
     24 C           2.9846    0.2660   27.3683 C.ar    1  UNL1        0.0486
     25 C           2.2647    1.0033   26.2782 C.ar    1  UNL1        0.0016
     26 C           2.3730    0.5346   24.8575 C.ar    1  UNL1       -0.0001
     27 C           3.2011   -0.6716   24.5268 C.ar    1  UNL1        0.0022
     28 C           3.9210   -1.4089   25.6167 C.ar    1  UNL1        0.0294
     29 C           3.8127   -0.9402   27.0375 C.ar    1  UNL1        0.1396
     30 F           4.5326   -1.6775   28.1275 F       1  UNL1       -0.2044
     31 C           3.3094   -1.1403   23.1061 C.ar    1  UNL1        0.0002
     32 C           4.2015   -2.2967   22.7637 C.ar    1  UNL1        0.0023
     33 C           4.3098   -2.7654   21.3430 C.ar    1  UNL1        0.0296
     34 C           3.5260   -2.0780   20.2646 C.ar    1  UNL1        0.1401
     35 F           3.6343   -2.5467   18.8439 F       1  UNL1       -0.2042
     36 C           2.6339   -0.9217   20.6068 C.ar    1  UNL1        0.0296
     37 C           2.5256   -0.4528   22.0276 C.ar    1  UNL1        0.0023
@<TRIPOS>BOND
     1    17    18    1
     2    18    19   am
     3    19    20    2
     4    19    11    1
     5    11    12   ar
     6    12    13   ar
     7    13    14   ar
     8    14     1    1
     9     1     2   ar
    10     2     3    1
    11     2     4   ar
    12     4     5   ar
    13     5     6   ar
    14     6    22    1
    15    22    23    1
    16    23    24    1
    17    24    25   ar
    18    25    26   ar
    19    26    27   ar
    20    27    31    1
    21    31    32   ar
    22    32    33   ar
    23    33    34   ar
    24    34    35    1
    25    34    36   ar
    26    36    37   ar
    27    27    28   ar
    28    28    29   ar
    29    29    30    1
    30     6     7   ar
    31     7     8   ar
    32     8     9   ar
    33     9    10   ar
    34    14    15   ar
    35    15    16   ar
    36    16    11   ar
    37    10     1   ar
    38    10     5   ar
    39    29    24   ar
    40    37    31   ar
    41    18    21    1
