@<TRIPOS>MOLECULE
*****
 34 38 0 0 0
SMALL
GASTEIGER

@<TRIPOS>ATOM
      1 C           2.1080    1.1227   25.3094 C.2     1  UNL1       -0.0144
      2 C           1.0728    1.4329   24.2689 C.2     1  UNL1        0.0893
      3 C           1.0614    1.0513   22.8182 C.2     1  UNL1        0.3694
      4 N          -0.1667    1.5644   22.1265 N.2     1  UNL1        0.1551
      5 O          -0.3741    1.2917   20.6661 O.2     1  UNL1       -0.2751
      6 C           0.6467    0.5058   19.8976 C.3     1  UNL1        0.3195
      7 C           1.8748   -0.0072   20.5894 C.3     1  UNL1        0.2321
      8 N           2.0821    0.2656   22.0498 N.pl3   1  UNL1       -0.1835
      9 C           3.3664   -0.3328   22.5421 C.3     1  UNL1        0.2030
     10 C           3.9473   -0.2932   23.9245 C.3     1  UNL1        0.0555
     11 C           3.3871    0.3546   25.1560 C.3     1  UNL1        0.0309
     12 C           2.8955   -0.7930   19.8209 C.ar    1  UNL1        0.0285
     13 C           2.8387   -2.2919   19.8144 C.ar    1  UNL1        0.0318
     14 C           3.8595   -3.0777   19.0458 C.ar    1  UNL1        0.1695
     15 F           3.8027   -4.5767   19.0392 F       1  UNL1       -0.2017
     16 C           4.9370   -2.3647   18.2839 C.ar    1  UNL1        0.1946
     17 F           5.9576   -3.1505   17.5154 F       1  UNL1       -0.1994
     18 C           4.9937   -0.8658   18.2905 C.ar    1  UNL1        0.1695
     19 F           6.0712   -0.1526   17.5286 F       1  UNL1       -0.2017
     20 C           3.9730   -0.0800   19.0590 C.ar    1  UNL1        0.0318
     21 C           0.5122    1.5147   28.9219 C.ar    1  UNL1        0.1547
     22 C           0.7936    0.9867   27.5462 C.ar    1  UNL1        0.0381
     23 C           1.8266    1.6506   26.6849 C.ar    1  UNL1       -0.0006
     24 C           2.5782    2.8425   27.1990 C.ar    1  UNL1        0.0014
     25 C           2.2969    3.3706   28.5746 C.ar    1  UNL1        0.0206
     26 C           1.2638    2.7066   29.4360 C.ar    1  UNL1        0.0994
     27 N           0.9825    3.2345   30.8115 N.ar    1  UNL1       -0.2839
     28 C           1.4726    2.6434   32.1001 C.ar    1  UNL1        0.1826
     29 N           0.9546    3.4899   33.2249 N.ar    1  UNL1       -0.2280
     30 C           0.1444    4.6040   32.6315 C.ar    1  UNL1        0.0786
     31 C          -0.5595    5.6861   33.3956 C.3     1  UNL1        0.0538
     32 C           0.1616    4.4463   31.1399 C.ar    1  UNL1        0.0963
     33 C          -1.5385   -0.0618   29.1654 C.3     1  UNL1        0.2525
     34 O          -0.5208    0.8507   29.7832 O.3     1  UNL1       -0.4700
@<TRIPOS>BOND
     1    33    34    1
     2    34    21    1
     3    21    22   ar
     4    22    23   ar
     5    23     1    1
     6     1     2    2
     7     2     3    1
     8     3     4    2
     9     4     5    1
    10     5     6    1
    11     6     7    1
    12     7    12    1
    13    12    13   ar
    14    13    14   ar
    15    14    15    1
    16    14    16   ar
    17    16    17    1
    18    16    18   ar
    19    18    19    1
    20    18    20   ar
    21     7     8    1
    22     8     9    1
    23     9    10    1
    24    10    11    1
    25    23    24   ar
    26    24    25   ar
    27    25    26   ar
    28    26    27    1
    29    27    28   ar
    30    28    29   ar
    31    29    30   ar
    32    30    31    1
    33    30    32   ar
    34    26    21   ar
    35    32    27   ar
    36    11     1    1
    37     8     3    1
    38    20    12   ar
@<TRIPOS>MOLECULE
*****
 34 38 0 0 0
SMALL
GASTEIGER

@<TRIPOS>ATOM
      1 C           0.2365    1.8366   23.3825 C.2     1  UNL1       -0.0144
      2 C           0.1339    2.0173   21.8969 C.2     1  UNL1        0.0893
      3 C           0.9313    1.3490   20.8163 C.2     1  UNL1        0.3694
      4 N           0.5085    1.8161   19.4550 N.2     1  UNL1        0.1551
      5 O           1.1826    1.2692   18.2316 O.2     1  UNL1       -0.2751
      6 C           2.2795    0.2554   18.3696 C.3     1  UNL1        0.3195
      7 C           2.7022   -0.2116   19.7310 C.3     1  UNL1        0.2321
      8 N           2.0281    0.3353   20.9543 N.pl3   1  UNL1       -0.1835
      9 C           2.5985   -0.2608   22.2070 C.3     1  UNL1        0.2030
     10 C           2.2130    0.0098   23.6312 C.3     1  UNL1        0.0555
     11 C           1.1617    0.9432   24.1542 C.3     1  UNL1        0.0309
     12 C           3.7991   -1.2254   19.8690 C.ar    1  UNL1        0.0285
     13 C           3.5014   -2.6831   19.6779 C.ar    1  UNL1        0.0318
     14 C           4.5983   -3.6969   19.8159 C.ar    1  UNL1        0.1695
     15 F           4.3006   -5.1547   19.6248 F       1  UNL1       -0.2017
     16 C           5.9928   -3.2532   20.1449 C.ar    1  UNL1        0.1946
     17 F           7.0896   -4.2669   20.2829 F       1  UNL1       -0.1994
     18 C           6.2905   -1.7954   20.3360 C.ar    1  UNL1        0.1695
     19 F           7.6850   -1.3515   20.6650 F       1  UNL1       -0.2017
     20 C           5.1936   -0.7816   20.1980 C.ar    1  UNL1        0.0318
     21 C          -2.4108    4.6141   24.3963 C.ar    1  UNL1        0.1547
     22 C          -1.4627    3.7926   23.5738 C.ar    1  UNL1        0.0381
     23 C          -0.7116    2.6580   24.2050 C.ar    1  UNL1       -0.0006
     24 C          -0.9085    2.3447   25.6586 C.ar    1  UNL1        0.0014
     25 C          -1.8566    3.1661   26.4812 C.ar    1  UNL1        0.0206
     26 C          -2.6077    4.3008   25.8500 C.ar    1  UNL1        0.0994
     27 N          -3.5558    5.1221   26.6724 N.ar    1  UNL1       -0.2839
     28 C          -3.1729    6.1681   27.6772 C.ar    1  UNL1        0.1826
     29 N          -4.4337    6.7342   28.2603 N.ar    1  UNL1       -0.2280
     30 C          -5.5957    6.0381   27.6160 C.ar    1  UNL1        0.0786
     31 C          -7.0457    6.2935   27.9028 C.3     1  UNL1        0.0538
     32 C          -5.0531    5.0418   26.6346 C.ar    1  UNL1        0.0963
     33 C          -4.3837    5.4724   22.9401 C.3     1  UNL1        0.2525
     34 O          -3.1619    5.7487   23.7652 O.3     1  UNL1       -0.4700
@<TRIPOS>BOND
     1    33    34    1
     2    34    21    1
     3    21    22   ar
     4    22    23   ar
     5    23     1    1
     6     1     2    2
     7     2     3    1
     8     3     4    2
     9     4     5    1
    10     5     6    1
    11     6     7    1
    12     7    12    1
    13    12    13   ar
    14    13    14   ar
    15    14    15    1
    16    14    16   ar
    17    16    17    1
    18    16    18   ar
    19    18    19    1
    20    18    20   ar
    21     7     8    1
    22     8     9    1
    23     9    10    1
    24    10    11    1
    25    23    24   ar
    26    24    25   ar
    27    25    26   ar
    28    26    27    1
    29    27    28   ar
    30    28    29   ar
    31    29    30   ar
    32    30    31    1
    33    30    32   ar
    34    26    21   ar
    35    32    27   ar
    36    11     1    1
    37     8     3    1
    38    20    12   ar
@<TRIPOS>MOLECULE
*****
 34 38 0 0 0
SMALL
GASTEIGER

@<TRIPOS>ATOM
      1 C           6.2553   -2.2810   32.5596 C.2     1  UNL1       -0.0144
      2 C           7.2748   -1.3362   33.1237 C.2     1  UNL1        0.0893
      3 C           7.0885   -0.2711   34.1635 C.2     1  UNL1        0.3694
      4 N           8.3725    0.4522   34.4430 N.2     1  UNL1        0.1551
      5 O           8.4049    1.5589   35.4551 O.2     1  UNL1       -0.2751
      6 C           7.1532    1.9421   36.1876 C.3     1  UNL1        0.3195
      7 C           5.8692    1.2187   35.9080 C.3     1  UNL1        0.2321
      8 N           5.8370    0.1120   34.8959 N.pl3   1  UNL1       -0.1835
      9 C           4.4624   -0.4750   34.7696 C.3     1  UNL1        0.2030
     10 C           4.0000   -1.5904   33.8796 C.3     1  UNL1        0.0555
     11 C           4.7980   -2.3941   32.8960 C.3     1  UNL1        0.0309
     12 C           4.6176    1.6020   36.6405 C.ar    1  UNL1        0.0285
     13 C           3.8559    2.8282   36.2331 C.ar    1  UNL1        0.0318
     14 C           2.6043    3.2115   36.9656 C.ar    1  UNL1        0.1695
     15 F           1.8425    4.4378   36.5582 F       1  UNL1       -0.2017
     16 C           2.1144    2.3686   38.1055 C.ar    1  UNL1        0.1946
     17 F           0.8628    2.7518   38.8380 F       1  UNL1       -0.1994
     18 C           2.8762    1.1423   38.5129 C.ar    1  UNL1        0.1695
     19 F           2.3863    0.2992   39.6528 F       1  UNL1       -0.2017
     20 C           4.1278    0.7590   37.7804 C.ar    1  UNL1        0.0318
     21 C           7.7721   -3.6819   29.1703 C.ar    1  UNL1        0.1547
     22 C           7.2673   -2.7235   30.2080 C.ar    1  UNL1        0.0381
     23 C           6.7601   -3.2394   31.5220 C.ar    1  UNL1       -0.0006
     24 C           6.7577   -4.7137   31.7984 C.ar    1  UNL1        0.0014
     25 C           7.2625   -5.6722   30.7608 C.ar    1  UNL1        0.0206
     26 C           7.7697   -5.1562   29.4467 C.ar    1  UNL1        0.0994
     27 N           8.2745   -6.1146   28.4092 N.ar    1  UNL1       -0.2839
     28 C           9.3261   -7.1642   28.6157 C.ar    1  UNL1        0.1826
     29 N           9.5178   -7.8900   27.3170 N.ar    1  UNL1       -0.2280
     30 C           8.5848   -7.2891   26.3080 C.ar    1  UNL1        0.0786
     31 C           8.4447   -7.7112   24.8754 C.3     1  UNL1        0.0538
     32 C           7.8163   -6.1918   26.9830 C.ar    1  UNL1        0.0963
     33 C           7.3484   -2.4533   26.9207 C.3     1  UNL1        0.2525
     34 O           8.2793   -3.1660   27.8564 O.3     1  UNL1       -0.4700
@<TRIPOS>BOND
     1    33    34    1
     2    34    21    1
     3    21    22   ar
     4    22    23   ar
     5    23     1    1
     6     1     2    2
     7     2     3    1
     8     3     4    2
     9     4     5    1
    10     5     6    1
    11     6     7    1
    12     7    12    1
    13    12    13   ar
    14    13    14   ar
    15    14    15    1
    16    14    16   ar
    17    16    17    1
    18    16    18   ar
    19    18    19    1
    20    18    20   ar
    21     7     8    1
    22     8     9    1
    23     9    10    1
    24    10    11    1
    25    23    24   ar
    26    24    25   ar
    27    25    26   ar
    28    26    27    1
    29    27    28   ar
    30    28    29   ar
    31    29    30   ar
    32    30    31    1
    33    30    32   ar
    34    26    21   ar
    35    32    27   ar
    36    11     1    1
    37     8     3    1
    38    20    12   ar
@<TRIPOS>MOLECULE
*****
 34 38 0 0 0
SMALL
GASTEIGER

@<TRIPOS>ATOM
      1 C           2.5478   -0.5455   21.4639 C.2     1  UNL1       -0.0144
      2 C           2.1635    0.3619   22.5949 C.2     1  UNL1        0.0893
      3 C           1.0921    1.4112   22.6294 C.2     1  UNL1        0.3694
      4 N           1.0386    2.0960   23.9629 N.2     1  UNL1        0.1551
      5 O           0.0333    3.1819   24.2085 O.2     1  UNL1       -0.2751
      6 C          -0.9185    3.5829   23.1207 C.3     1  UNL1        0.3195
      7 C          -0.8649    2.8980   21.7871 C.3     1  UNL1        0.2321
      8 N           0.1405    1.8122   21.5416 N.pl3   1  UNL1       -0.1835
      9 C           0.0250    1.2629   20.1505 C.3     1  UNL1        0.2030
     10 C           0.8328    0.1771   19.5038 C.3     1  UNL1        0.0555
     11 C           1.9556   -0.6278   20.0884 C.3     1  UNL1        0.0309
     12 C          -1.8166    3.2990   20.6993 C.ar    1  UNL1        0.0285
     13 C          -3.2884    3.0623   20.8656 C.ar    1  UNL1        0.0318
     14 C          -4.2402    3.4633   19.7778 C.ar    1  UNL1        0.1695
     15 F          -5.7121    3.2266   19.9441 F       1  UNL1       -0.2017
     16 C          -3.7201    4.1010   18.5236 C.ar    1  UNL1        0.1946
     17 F          -4.6718    4.5020   17.4358 F       1  UNL1       -0.1994
     18 C          -2.2483    4.3377   18.3574 C.ar    1  UNL1        0.1695
     19 F          -1.7281    4.9754   17.1032 F       1  UNL1       -0.2017
     20 C          -1.2965    3.9367   19.4452 C.ar    1  UNL1        0.0318
     21 C           5.1102   -3.5490   21.0594 C.ar    1  UNL1        0.1547
     22 C           3.9849   -2.5981   20.7771 C.ar    1  UNL1        0.0381
     23 C           3.6731   -1.4964   21.7461 C.ar    1  UNL1       -0.0006
     24 C           4.4865   -1.3455   22.9973 C.ar    1  UNL1        0.0014
     25 C           5.6118   -2.2963   23.2796 C.ar    1  UNL1        0.0206
     26 C           5.9236   -3.3981   22.3106 C.ar    1  UNL1        0.0994
     27 N           7.0489   -4.3489   22.5928 N.ar    1  UNL1       -0.2839
     28 C           8.2264   -4.6109   21.7012 C.ar    1  UNL1        0.1826
     29 N           9.0994   -5.6286   22.3736 N.ar    1  UNL1       -0.2280
     30 C           8.4616   -5.9955   23.6806 C.ar    1  UNL1        0.0786
     31 C           8.9971   -6.9804   24.6773 C.3     1  UNL1        0.0538
     32 C           7.1943   -5.2046   23.8162 C.ar    1  UNL1        0.0963
     33 C           4.5063   -4.9116   18.9314 C.3     1  UNL1        0.2525
     34 O           5.4220   -4.6507   20.0904 O.3     1  UNL1       -0.4700
@<TRIPOS>BOND
     1    33    34    1
     2    34    21    1
     3    21    22   ar
     4    22    23   ar
     5    23     1    1
     6     1     2    2
     7     2     3    1
     8     3     4    2
     9     4     5    1
    10     5     6    1
    11     6     7    1
    12     7    12    1
    13    12    13   ar
    14    13    14   ar
    15    14    15    1
    16    14    16   ar
    17    16    17    1
    18    16    18   ar
    19    18    19    1
    20    18    20   ar
    21     7     8    1
    22     8     9    1
    23     9    10    1
    24    10    11    1
    25    23    24   ar
    26    24    25   ar
    27    25    26   ar
    28    26    27    1
    29    27    28   ar
    30    28    29   ar
    31    29    30   ar
    32    30    31    1
    33    30    32   ar
    34    26    21   ar
    35    32    27   ar
    36    11     1    1
    37     8     3    1
    38    20    12   ar
@<TRIPOS>MOLECULE
*****
 34 38 0 0 0
SMALL
GASTEIGER

@<TRIPOS>ATOM
      1 C           0.4861    1.6224   23.9900 C.2     1  UNL1       -0.0144
      2 C           1.4228    0.8844   24.9000 C.2     1  UNL1        0.0893
      3 C           2.5443   -0.0428   24.5353 C.2     1  UNL1        0.3694
      4 N           3.2366   -0.5720   25.7562 N.2     1  UNL1        0.1551
      5 O           4.3908   -1.5192   25.6126 O.2     1  UNL1       -0.2751
      6 C           4.8526   -1.9372   24.2480 C.3     1  UNL1        0.3195
      7 C           4.1602   -1.4079   23.0271 C.3     1  UNL1        0.2321
      8 N           3.0060   -0.4607   23.1709 N.pl3   1  UNL1       -0.1835
      9 C           2.4604   -0.0548   21.8338 C.3     1  UNL1        0.2030
     10 C           1.3183    0.8693   21.5311 C.3     1  UNL1        0.0555
     11 C           0.4397    1.6157   22.4908 C.3     1  UNL1        0.0309
     12 C           4.6220   -1.8259   21.6625 C.ar    1  UNL1        0.0285
     13 C           5.7303   -1.0769   20.9838 C.ar    1  UNL1        0.0318
     14 C           6.1921   -1.4949   19.6192 C.ar    1  UNL1        0.1695
     15 F           7.3004   -0.7459   18.9405 F       1  UNL1       -0.2017
     16 C           5.5457   -2.6618   18.9334 C.ar    1  UNL1        0.1946
     17 F           6.0074   -3.0797   17.5689 F       1  UNL1       -0.1994
     18 C           4.4373   -3.4108   19.6122 C.ar    1  UNL1        0.1695
     19 F           3.7908   -4.5777   18.9264 F       1  UNL1       -0.2017
     20 C           3.9755   -2.9928   20.9767 C.ar    1  UNL1        0.0318
     21 C          -2.2258    4.4559   24.5960 C.ar    1  UNL1        0.1547
     22 C          -1.2001    3.5976   23.9167 C.ar    1  UNL1        0.0381
     23 C          -0.5396    2.4807   24.6692 C.ar    1  UNL1       -0.0006
     24 C          -0.9048    2.2219   26.1008 C.ar    1  UNL1        0.0014
     25 C          -1.9305    3.0801   26.7801 C.ar    1  UNL1        0.0206
     26 C          -2.5910    4.1971   26.0277 C.ar    1  UNL1        0.0994
     27 N          -3.6167    5.0553   26.7069 N.ar    1  UNL1       -0.2839
     28 C          -3.3371    6.1465   27.6975 C.ar    1  UNL1        0.1826
     29 N          -4.6497    6.7386   28.1176 N.ar    1  UNL1       -0.2280
     30 C          -5.7405    6.0134   27.3867 C.ar    1  UNL1        0.0786
     31 C          -7.2115    6.2815   27.5067 C.3     1  UNL1        0.0538
     32 C          -5.1021    4.9731   26.5148 C.ar    1  UNL1        0.0963
     33 C          -4.0291    5.2802   22.9172 C.3     1  UNL1        0.2525
     34 O          -2.8863    5.5728   23.8436 O.3     1  UNL1       -0.4700
@<TRIPOS>BOND
     1    33    34    1
     2    34    21    1
     3    21    22   ar
     4    22    23   ar
     5    23     1    1
     6     1     2    2
     7     2     3    1
     8     3     4    2
     9     4     5    1
    10     5     6    1
    11     6     7    1
    12     7    12    1
    13    12    13   ar
    14    13    14   ar
    15    14    15    1
    16    14    16   ar
    17    16    17    1
    18    16    18   ar
    19    18    19    1
    20    18    20   ar
    21     7     8    1
    22     8     9    1
    23     9    10    1
    24    10    11    1
    25    23    24   ar
    26    24    25   ar
    27    25    26   ar
    28    26    27    1
    29    27    28   ar
    30    28    29   ar
    31    29    30   ar
    32    30    31    1
    33    30    32   ar
    34    26    21   ar
    35    32    27   ar
    36    11     1    1
    37     8     3    1
    38    20    12   ar
@<TRIPOS>MOLECULE
*****
 34 38 0 0 0
SMALL
GASTEIGER

@<TRIPOS>ATOM
      1 C          -1.3398    2.7790   26.1598 C.2     1  UNL1       -0.0144
      2 C          -2.6882    3.3064   26.5520 C.2     1  UNL1        0.0893
      3 C          -3.7553    3.8906   25.6743 C.2     1  UNL1        0.3694
      4 N          -4.9584    4.2983   26.4720 N.2     1  UNL1        0.1551
      5 O          -6.1438    4.9071   25.7833 O.2     1  UNL1       -0.2751
      6 C          -6.1261    5.1080   24.2970 C.3     1  UNL1        0.3195
      7 C          -4.9229    4.7003   23.4993 C.3     1  UNL1        0.2321
      8 N          -3.7375    4.0915   24.1881 N.pl3   1  UNL1       -0.1835
      9 C          -2.6483    3.7580   23.2121 C.3     1  UNL1        0.2030
     10 C          -1.3078    3.1412   23.4815 C.3     1  UNL1        0.0555
     11 C          -0.7255    2.7055   24.7934 C.3     1  UNL1        0.0309
     12 C          -4.9052    4.9013   22.0129 C.ar    1  UNL1        0.0285
     13 C          -4.3977    6.1897   21.4364 C.ar    1  UNL1        0.0318
     14 C          -4.3800    6.3907   19.9500 C.ar    1  UNL1        0.1695
     15 F          -3.8725    7.6791   19.3734 F       1  UNL1       -0.2017
     16 C          -4.8697    5.3034   19.0402 C.ar    1  UNL1        0.1946
     17 F          -4.8520    5.5043   17.5539 F       1  UNL1       -0.1994
     18 C          -5.3772    4.0149   19.6168 C.ar    1  UNL1        0.1695
     19 F          -5.8669    2.9274   18.7070 F       1  UNL1       -0.2017
     20 C          -5.3949    3.8139   21.1032 C.ar    1  UNL1        0.0318
     21 C           1.6637    2.3870   28.7242 C.ar    1  UNL1        0.1547
     22 C           0.8178    2.9101   27.6012 C.ar    1  UNL1        0.0381
     23 C          -0.4939    2.2560   27.2828 C.ar    1  UNL1       -0.0006
     24 C          -0.9598    1.0788   28.0872 C.ar    1  UNL1        0.0014
     25 C          -0.1141    0.5557   29.2102 C.ar    1  UNL1        0.0206
     26 C           1.1978    1.2098   29.5287 C.ar    1  UNL1        0.0994
     27 N           2.0435    0.6868   30.6515 N.ar    1  UNL1       -0.2839
     28 C           2.2403    1.3422   31.9864 C.ar    1  UNL1        0.1826
     29 N           3.1595    0.4769   32.7966 N.ar    1  UNL1       -0.2280
     30 C           3.5308   -0.7132   31.9626 C.ar    1  UNL1        0.0786
     31 C           4.4333   -1.8359   32.3809 C.3     1  UNL1        0.0538
     32 C           2.8411   -0.5835   30.6368 C.ar    1  UNL1        0.0963
     33 C           4.2421    2.5176   28.4331 C.3     1  UNL1        0.2525
     34 O           2.9754    3.0411   29.0426 O.3     1  UNL1       -0.4700
@<TRIPOS>BOND
     1    33    34    1
     2    34    21    1
     3    21    22   ar
     4    22    23   ar
     5    23     1    1
     6     1     2    2
     7     2     3    1
     8     3     4    2
     9     4     5    1
    10     5     6    1
    11     6     7    1
    12     7    12    1
    13    12    13   ar
    14    13    14   ar
    15    14    15    1
    16    14    16   ar
    17    16    17    1
    18    16    18   ar
    19    18    19    1
    20    18    20   ar
    21     7     8    1
    22     8     9    1
    23     9    10    1
    24    10    11    1
    25    23    24   ar
    26    24    25   ar
    27    25    26   ar
    28    26    27    1
    29    27    28   ar
    30    28    29   ar
    31    29    30   ar
    32    30    31    1
    33    30    32   ar
    34    26    21   ar
    35    32    27   ar
    36    11     1    1
    37     8     3    1
    38    20    12   ar
@<TRIPOS>MOLECULE
*****
 34 38 0 0 0
SMALL
GASTEIGER

@<TRIPOS>ATOM
      1 C           3.0567    2.4356   34.8931 C.2     1  UNL1       -0.0144
      2 C           3.8680    1.3088   34.3254 C.2     1  UNL1        0.0893
      3 C           3.7497    0.6566   32.9797 C.2     1  UNL1        0.3694
      4 N           4.7602   -0.4390   32.8112 N.2     1  UNL1        0.1551
      5 O           4.8120   -1.2212   31.5323 O.2     1  UNL1       -0.2751
      6 C           3.8534   -0.9077   30.4220 C.3     1  UNL1        0.3195
      7 C           2.8429    0.1880   30.5906 C.3     1  UNL1        0.2321
      8 N           2.7911    0.9702   31.8696 N.pl3   1  UNL1       -0.1835
      9 C           1.7139    2.0133   31.8307 C.3     1  UNL1        0.2030
     10 C           1.3293    3.0005   32.8925 C.3     1  UNL1        0.0555
     11 C           1.9269    3.1884   34.2554 C.3     1  UNL1        0.0309
     12 C           1.8842    0.5015   29.4804 C.ar    1  UNL1        0.0285
     13 C           2.2939    1.4294   28.3754 C.ar    1  UNL1        0.0318
     14 C           1.3353    1.7429   27.2652 C.ar    1  UNL1        0.1695
     15 F           1.7450    2.6709   26.1601 F       1  UNL1       -0.2017
     16 C          -0.0331    1.1285   27.2598 C.ar    1  UNL1        0.1946
     17 F          -0.9917    1.4420   26.1496 F       1  UNL1       -0.1994
     18 C          -0.4428    0.2005   28.3648 C.ar    1  UNL1        0.1695
     19 F          -1.8111   -0.4140   28.3596 F       1  UNL1       -0.2017
     20 C           0.5159   -0.1130   29.4751 C.ar    1  UNL1        0.0318
     21 C           2.9198    2.9138   38.8305 C.ar    1  UNL1        0.1547
     22 C           2.5526    2.4829   37.4414 C.ar    1  UNL1        0.0381
     23 C           3.4239    2.8665   36.2822 C.ar    1  UNL1       -0.0006
     24 C           4.6624    3.6808   36.5120 C.ar    1  UNL1        0.0014
     25 C           5.0297    4.1117   37.9011 C.ar    1  UNL1        0.0206
     26 C           4.1584    3.7282   39.0603 C.ar    1  UNL1        0.0994
     27 N           4.5256    4.1590   40.4494 N.ar    1  UNL1       -0.2839
     28 C           5.7700    3.7723   41.1924 C.ar    1  UNL1        0.1826
     29 N           5.7264    4.4265   42.5415 N.ar    1  UNL1       -0.2280
     30 C           4.4552    5.2175   42.6323 C.ar    1  UNL1        0.0786
     31 C           4.0051    6.0310   43.8095 C.3     1  UNL1        0.0538
     32 C           3.7130    5.0522   41.3393 C.ar    1  UNL1        0.0963
     33 C           0.7085    1.9022   39.7451 C.3     1  UNL1        0.2525
     34 O           2.0486    2.5303   39.9897 O.3     1  UNL1       -0.4700
@<TRIPOS>BOND
     1    33    34    1
     2    34    21    1
     3    21    22   ar
     4    22    23   ar
     5    23     1    1
     6     1     2    2
     7     2     3    1
     8     3     4    2
     9     4     5    1
    10     5     6    1
    11     6     7    1
    12     7    12    1
    13    12    13   ar
    14    13    14   ar
    15    14    15    1
    16    14    16   ar
    17    16    17    1
    18    16    18   ar
    19    18    19    1
    20    18    20   ar
    21     7     8    1
    22     8     9    1
    23     9    10    1
    24    10    11    1
    25    23    24   ar
    26    24    25   ar
    27    25    26   ar
    28    26    27    1
    29    27    28   ar
    30    28    29   ar
    31    29    30   ar
    32    30    31    1
    33    30    32   ar
    34    26    21   ar
    35    32    27   ar
    36    11     1    1
    37     8     3    1
    38    20    12   ar
@<TRIPOS>MOLECULE
*****
 34 38 0 0 0
SMALL
GASTEIGER

@<TRIPOS>ATOM
      1 C           5.5977   -2.1931   26.7760 C.2     1  UNL1       -0.0144
      2 C           5.9503   -3.4877   27.4469 C.2     1  UNL1        0.0893
      3 C           6.2864   -3.7329   28.8881 C.2     1  UNL1        0.3694
      4 N           6.5794   -5.1816   29.1435 N.2     1  UNL1        0.1551
      5 O           6.9390   -5.6419   30.5252 O.2     1  UNL1       -0.2751
      6 C           7.0056   -4.6533   31.6514 C.3     1  UNL1        0.3195
      7 C           6.7124   -3.2045   31.3959 C.3     1  UNL1        0.2321
      8 N           6.3528   -2.7444   30.0142 N.pl3   1  UNL1       -0.1835
      9 C           6.0997   -1.2663   29.9774 C.3     1  UNL1        0.2030
     10 C           5.7175   -0.4118   28.8054 C.3     1  UNL1        0.0555
     11 C           5.4941   -0.8244   27.3806 C.3     1  UNL1        0.0309
     12 C           6.7790   -2.2159   32.5221 C.ar    1  UNL1        0.0285
     13 C           8.0928   -1.6010   32.9036 C.ar    1  UNL1        0.0318
     14 C           8.1593   -0.6125   34.0298 C.ar    1  UNL1        0.1695
     15 F           9.4733    0.0025   34.4114 F       1  UNL1       -0.2017
     16 C           6.9121   -0.2388   34.7745 C.ar    1  UNL1        0.1946
     17 F           6.9785    0.7497   35.9006 F       1  UNL1       -0.1994
     18 C           5.5981   -0.8537   34.3929 C.ar    1  UNL1        0.1695
     19 F           4.3507   -0.4801   35.1375 F       1  UNL1       -0.2017
     20 C           5.5316   -1.8423   33.2667 C.ar    1  UNL1        0.0318
     21 C           5.7749   -3.3418   22.9813 C.ar    1  UNL1        0.1547
     22 C           6.0619   -3.2560   24.4512 C.ar    1  UNL1        0.0381
     23 C           5.3107   -2.2790   25.3062 C.ar    1  UNL1       -0.0006
     24 C           4.2726   -1.3877   24.6915 C.ar    1  UNL1        0.0014
     25 C           3.9855   -1.4735   23.2217 C.ar    1  UNL1        0.0206
     26 C           4.7368   -2.4505   22.3666 C.ar    1  UNL1        0.0994
     27 N           4.4498   -2.5363   20.8969 N.ar    1  UNL1       -0.2839
     28 C           4.0576   -3.7742   20.1459 C.ar    1  UNL1        0.1826
     29 N           3.8700   -3.4022   18.7049 N.ar    1  UNL1       -0.2280
     30 C           4.1463   -1.9345   18.5653 C.ar    1  UNL1        0.0786
     31 C           4.0765   -1.1412   17.2941 C.3     1  UNL1        0.0538
     32 C           4.5046   -1.3993   19.9200 C.ar    1  UNL1        0.0963
     33 C           8.0172   -4.2142   22.0011 C.3     1  UNL1        0.2525
     34 O           6.5261   -4.3188   22.1263 O.3     1  UNL1       -0.4700
@<TRIPOS>BOND
     1    33    34    1
     2    34    21    1
     3    21    22   ar
     4    22    23   ar
     5    23     1    1
     6     1     2    2
     7     2     3    1
     8     3     4    2
     9     4     5    1
    10     5     6    1
    11     6     7    1
    12     7    12    1
    13    12    13   ar
    14    13    14   ar
    15    14    15    1
    16    14    16   ar
    17    16    17    1
    18    16    18   ar
    19    18    19    1
    20    18    20   ar
    21     7     8    1
    22     8     9    1
    23     9    10    1
    24    10    11    1
    25    23    24   ar
    26    24    25   ar
    27    25    26   ar
    28    26    27    1
    29    27    28   ar
    30    28    29   ar
    31    29    30   ar
    32    30    31    1
    33    30    32   ar
    34    26    21   ar
    35    32    27   ar
    36    11     1    1
    37     8     3    1
    38    20    12   ar
@<TRIPOS>MOLECULE
*****
 34 38 0 0 0
SMALL
GASTEIGER

@<TRIPOS>ATOM
      1 C           5.4123   -2.0035   27.1235 C.2     1  UNL1       -0.0144
      2 C           6.4416   -2.9750   26.6266 C.2     1  UNL1        0.0893
      3 C           6.7010   -3.4243   25.2191 C.2     1  UNL1        0.3694
      4 N           7.8286   -4.4115   25.1581 N.2     1  UNL1        0.1551
      5 O           8.2505   -4.9876   23.8389 O.2     1  UNL1       -0.2751
      6 C           7.5447   -4.5765   22.5808 C.3     1  UNL1        0.3195
      7 C           6.4170   -3.5893   22.6419 C.3     1  UNL1        0.2321
      8 N           5.9952   -3.0132   23.9611 N.pl3   1  UNL1       -0.1835
      9 C           4.8556   -2.0512   23.7996 C.3     1  UNL1        0.2030
     10 C           4.1405   -1.2627   24.8565 C.3     1  UNL1        0.0555
     11 C           4.3883   -1.2415   26.3357 C.3     1  UNL1        0.0309
     12 C           5.7112   -3.1781   21.3838 C.ar    1  UNL1        0.0285
     13 C           4.5988   -4.0232   20.8376 C.ar    1  UNL1        0.0318
     14 C           3.8929   -3.6121   19.5795 C.ar    1  UNL1        0.1695
     15 F           2.7805   -4.4572   19.0332 F       1  UNL1       -0.2017
     16 C           4.2995   -2.3560   18.8676 C.ar    1  UNL1        0.1946
     17 F           3.5937   -1.9449   17.6095 F       1  UNL1       -0.1994
     18 C           5.4119   -1.5109   19.4138 C.ar    1  UNL1        0.1695
     19 F           5.8185   -0.2547   18.7020 F       1  UNL1       -0.2017
     20 C           6.1177   -1.9220   20.6720 C.ar    1  UNL1        0.0318
     21 C           6.1706   -2.4300   30.9956 C.ar    1  UNL1        0.1547
     22 C           6.1766   -2.6713   29.5151 C.ar    1  UNL1        0.0381
     23 C           5.4064   -1.7622   28.6039 C.ar    1  UNL1       -0.0006
     24 C           4.6303   -0.6117   29.1732 C.ar    1  UNL1        0.0014
     25 C           4.6243   -0.3703   30.6536 C.ar    1  UNL1        0.0206
     26 C           5.3945   -1.2795   31.5649 C.ar    1  UNL1        0.0994
     27 N           5.3886   -1.0382   33.0452 N.ar    1  UNL1       -0.2839
     28 C           4.2874   -1.4077   33.9944 C.ar    1  UNL1        0.1826
     29 N           4.7010   -0.9829   35.3722 N.ar    1  UNL1       -0.2280
     30 C           6.0578   -0.3508   35.2746 C.ar    1  UNL1        0.0786
     31 C           6.8505    0.2159   36.4150 C.3     1  UNL1        0.0538
     32 C           6.4828   -0.3850   33.8365 C.ar    1  UNL1        0.0963
     33 C           8.4149   -3.1373   32.0969 C.3     1  UNL1        0.2525
     34 O           6.9408   -3.3392   31.9067 O.3     1  UNL1       -0.4700
@<TRIPOS>BOND
     1    33    34    1
     2    34    21    1
     3    21    22   ar
     4    22    23   ar
     5    23     1    1
     6     1     2    2
     7     2     3    1
     8     3     4    2
     9     4     5    1
    10     5     6    1
    11     6     7    1
    12     7    12    1
    13    12    13   ar
    14    13    14   ar
    15    14    15    1
    16    14    16   ar
    17    16    17    1
    18    16    18   ar
    19    18    19    1
    20    18    20   ar
    21     7     8    1
    22     8     9    1
    23     9    10    1
    24    10    11    1
    25    23    24   ar
    26    24    25   ar
    27    25    26   ar
    28    26    27    1
    29    27    28   ar
    30    28    29   ar
    31    29    30   ar
    32    30    31    1
    33    30    32   ar
    34    26    21   ar
    35    32    27   ar
    36    11     1    1
    37     8     3    1
    38    20    12   ar
