@<TRIPOS>MOLECULE
*****
 39 42 0 0 0
SMALL
GASTEIGER

@<TRIPOS>ATOM
      1 C           0.6228    1.9971   26.9335 C.ar    1  UNL1        0.0053
      2 C          -0.5893    2.4135   26.1542 C.ar    1  UNL1        0.0033
      3 C          -0.6469    2.1770   24.6741 C.ar    1  UNL1        0.0382
      4 C           0.5075    1.5241   23.9734 C.ar    1  UNL1        0.1529
      5 C           1.7196    1.1077   24.7527 C.ar    1  UNL1        0.0881
      6 C           1.7772    1.3443   26.2328 C.ar    1  UNL1        0.0181
      7 N           2.8740    0.4548   24.0520 N.am    1  UNL1       -0.2528
      8 C           2.8164    0.2183   22.5719 C.2     1  UNL1        0.2697
      9 O           3.9708   -0.4346   21.8712 O.2     1  UNL1       -0.2704
     10 C           1.6042    0.6347   21.7925 C.3     1  UNL1        0.2199
     11 C           0.6818    0.8503   20.6295 C.3     1  UNL1        0.0579
     12 O           0.4498    1.2876   22.4932 O.3     1  UNL1       -0.4686
     13 C           0.2834    1.1427   29.3635 C.ar    1  UNL1        0.0645
     14 N           0.3411    1.3792   30.8436 N.ar    1  UNL1       -0.2183
     15 C           0.7959    2.7066   31.3739 C.ar    1  UNL1        0.2145
     16 N           0.8536    2.9431   32.8540 N.pl3   1  UNL1       -0.3274
     17 N           1.1930    3.7976   30.4241 N.ar    1  UNL1       -0.1995
     18 C           1.1353    3.5610   28.9439 C.ar    1  UNL1        0.1293
     19 N           1.5324    4.6520   27.9941 N.pl3   1  UNL1       -0.3425
     20 C           0.6805    2.2337   28.4137 C.ar    1  UNL1        0.0449
     21 H           0.5930    2.2271   33.4774 H       1  UNL1        0.1452
     22 H           1.1521    3.8143   33.2021 H       1  UNL1        0.1452
     23 H           1.8309    5.5232   28.3421 H       1  UNL1        0.1437
     24 H           1.4945    4.4967   27.0226 H       1  UNL1        0.1437
     25 C          -1.6215   -0.5622   28.9004 C.3     1  UNL1        0.0067
     26 C          -0.1713   -0.1847   28.8332 C.3     1  UNL1        0.0460
     27 C           2.4383    0.0567   20.6879 C.ar    1  UNL1        0.0264
     28 C           2.4134   -1.4196   20.4231 C.ar    1  UNL1        0.0293
     29 C           3.2475   -1.9975   19.3184 C.ar    1  UNL1        0.1422
     30 F           3.2226   -3.4739   19.0537 F       1  UNL1       -0.2041
     31 C           4.1064   -1.0994   18.4786 C.ar    1  UNL1        0.0592
     32 C           4.1313    0.3768   18.7434 C.ar    1  UNL1        0.1422
     33 F           4.9903    1.2751   17.9035 F       1  UNL1       -0.2041
     34 C           3.2973    0.9549   19.8480 C.ar    1  UNL1        0.0293
     35 C           4.0861    0.0385   24.8313 C.3     1  UNL1        0.1010
     36 C           4.1976   -1.3637   25.3522 C.3     1  UNL1        0.0539
     37 C           4.4510   -1.6039   26.8111 C.3     1  UNL1        0.1440
     38 O           3.3250   -1.4933   27.7960 O.3     1  UNL1       -0.3510
     39 C           3.5022   -0.6906   29.0506 C.3     1  UNL1        0.1741
@<TRIPOS>BOND
     1    25    26    1
     2    26    13    1
     3    13    14   ar
     4    14    15   ar
     5    15    16    1
     6    15    17   ar
     7    17    18   ar
     8    18    19    1
     9    18    20   ar
    10    20     1    1
    11     1     2   ar
    12     2     3   ar
    13     3     4   ar
    14     4     5   ar
    15     5     6   ar
    16     5     7    1
    17     7    35    1
    18    35    36    1
    19    36    37    1
    20    37    38    1
    21    38    39    1
    22     7     8   am
    23     8     9    2
    24     8    10    1
    25    10    11    1
    26    10    27    1
    27    27    28   ar
    28    28    29   ar
    29    29    30    1
    30    29    31   ar
    31    31    32   ar
    32    32    33    1
    33    32    34   ar
    34    10    12    1
    35    20    13   ar
    36     6     1   ar
    37    34    27   ar
    38    12     4    1
    39    16    21    1
    40    16    22    1
    41    19    23    1
    42    19    24    1
@<TRIPOS>MOLECULE
*****
 39 42 0 0 0
SMALL
GASTEIGER

@<TRIPOS>ATOM
      1 C           0.6367    1.9821   26.9500 C.ar    1  UNL1        0.0053
      2 C          -0.5793    2.4004   26.1778 C.ar    1  UNL1        0.0033
      3 C          -0.6424    2.1723   24.6967 C.ar    1  UNL1        0.0382
      4 C           0.5106    1.5258   23.9876 C.ar    1  UNL1        0.1529
      5 C           1.7266    1.1074   24.7598 C.ar    1  UNL1        0.0881
      6 C           1.7896    1.3356   26.2409 C.ar    1  UNL1        0.0181
      7 N           2.8795    0.4609   24.0507 N.am    1  UNL1       -0.2528
      8 C           2.8165    0.2328   22.5696 C.2     1  UNL1        0.2697
      9 O           3.9694   -0.4138   21.8606 O.2     1  UNL1       -0.2704
     10 C           1.6004    0.6511   21.7973 C.3     1  UNL1        0.2199
     11 C           0.6729    0.8715   20.6393 C.3     1  UNL1        0.0579
     12 O           0.4475    1.2976   22.5064 O.3     1  UNL1       -0.4686
     13 C           0.2623    1.1303   29.3757 C.ar    1  UNL1        0.0645
     14 N           0.3254    1.3584   30.8569 N.ar    1  UNL1       -0.2183
     15 C           0.8260    2.6666   31.3936 C.ar    1  UNL1        0.2145
     16 N           0.8891    2.8947   32.8748 N.pl3   1  UNL1       -0.3274
     17 N           1.2635    3.7467   30.4491 N.ar    1  UNL1       -0.1995
     18 C           1.2004    3.5185   28.9679 C.ar    1  UNL1        0.1293
     19 N           1.6379    4.5985   28.0234 N.pl3   1  UNL1       -0.3425
     20 C           0.6998    2.2103   28.4312 C.ar    1  UNL1        0.0449
     21 H           0.6020    2.1858   33.4947 H       1  UNL1        0.1452
     22 H           1.2176    3.7533   33.2271 H       1  UNL1        0.1452
     23 H           1.9664    5.4571   28.3756 H       1  UNL1        0.1437
     24 H           1.5964    4.4488   27.0512 H       1  UNL1        0.1437
     25 C          -1.6937   -0.5250   28.9461 C.3     1  UNL1        0.0067
     26 C          -0.2383   -0.1780   28.8390 C.3     1  UNL1        0.0460
     27 C           2.4312    0.0811   20.6862 C.ar    1  UNL1        0.0264
     28 C           3.2897    0.9851   19.8520 C.ar    1  UNL1        0.0293
     29 C           4.1206    0.4151   18.7407 C.ar    1  UNL1        0.1422
     30 F           4.9791    1.3191   17.9066 F       1  UNL1       -0.2041
     31 C           4.0930   -1.0588   18.4637 C.ar    1  UNL1        0.0592
     32 C           3.2345   -1.9627   19.2979 C.ar    1  UNL1        0.1422
     33 F           3.2069   -3.4367   19.0208 F       1  UNL1       -0.2041
     34 C           2.4036   -1.3928   20.4091 C.ar    1  UNL1        0.0293
     35 C           4.0956    0.0426   24.8229 C.3     1  UNL1        0.1010
     36 C           4.2267   -1.3709   25.3075 C.3     1  UNL1        0.0539
     37 C           4.4479   -1.6464   26.7653 C.3     1  UNL1        0.1440
     38 O           3.3041   -1.5423   27.7302 O.3     1  UNL1       -0.3510
     39 C           3.4214   -0.6638   28.9404 C.3     1  UNL1        0.1741
@<TRIPOS>BOND
     1    25    26    1
     2    26    13    1
     3    13    14   ar
     4    14    15   ar
     5    15    16    1
     6    15    17   ar
     7    17    18   ar
     8    18    19    1
     9    18    20   ar
    10    20     1    1
    11     1     2   ar
    12     2     3   ar
    13     3     4   ar
    14     4     5   ar
    15     5     6   ar
    16     5     7    1
    17     7    35    1
    18    35    36    1
    19    36    37    1
    20    37    38    1
    21    38    39    1
    22     7     8   am
    23     8     9    2
    24     8    10    1
    25    10    11    1
    26    10    27    1
    27    27    28   ar
    28    28    29   ar
    29    29    30    1
    30    29    31   ar
    31    31    32   ar
    32    32    33    1
    33    32    34   ar
    34    10    12    1
    35    20    13   ar
    36     6     1   ar
    37    34    27   ar
    38    12     4    1
    39    16    21    1
    40    16    22    1
    41    19    23    1
    42    19    24    1
@<TRIPOS>MOLECULE
*****
 39 42 0 0 0
SMALL
GASTEIGER

@<TRIPOS>ATOM
      1 C           0.6498    1.9477   26.9210 C.ar    1  UNL1        0.0053
      2 C          -0.5912    2.3335   26.1720 C.ar    1  UNL1        0.0033
      3 C          -0.6727    2.1113   24.6908 C.ar    1  UNL1        0.0382
      4 C           0.4868    1.5034   23.9587 C.ar    1  UNL1        0.1529
      5 C           1.7278    1.1177   24.7077 C.ar    1  UNL1        0.0881
      6 C           1.8093    1.3398   26.1889 C.ar    1  UNL1        0.0181
      7 N           2.8872    0.5098   23.9755 N.am    1  UNL1       -0.2528
      8 C           2.8057    0.2876   22.4943 C.2     1  UNL1        0.2697
      9 O           3.9652   -0.3203   21.7621 O.2     1  UNL1       -0.2704
     10 C           1.5647    0.6734   21.7452 C.3     1  UNL1        0.2199
     11 C           0.6113    0.8720   20.6043 C.3     1  UNL1        0.0579
     12 O           0.4052    1.2813   22.4774 O.3     1  UNL1       -0.4686
     13 C           0.3356    1.0747   29.3478 C.ar    1  UNL1        0.0645
     14 N           0.4171    1.2968   30.8290 N.ar    1  UNL1       -0.2183
     15 C           0.8945    2.6141   31.3648 C.ar    1  UNL1        0.2145
     16 N           0.9761    2.8362   32.8459 N.pl3   1  UNL1       -0.3274
     17 N           1.2903    3.7092   30.4192 N.ar    1  UNL1       -0.1995
     18 C           1.2088    3.4871   28.9380 C.ar    1  UNL1        0.1293
     19 N           1.6046    4.5822   27.9925 N.pl3   1  UNL1       -0.3425
     20 C           0.7314    2.1699   28.4023 C.ar    1  UNL1        0.0449
     21 H           0.7163    2.1174   33.4665 H       1  UNL1        0.1452
     22 H           1.2894    3.7007   33.1976 H       1  UNL1        0.1452
     23 H           1.9179    5.4468   28.3441 H       1  UNL1        0.1437
     24 H           1.5511    4.4364   27.0203 H       1  UNL1        0.1437
     25 C          -1.5951   -0.6044   28.8969 C.3     1  UNL1        0.0067
     26 C          -0.1418   -0.2425   28.8121 C.3     1  UNL1        0.0460
     27 C           2.3930    0.1345   20.6168 C.ar    1  UNL1        0.0264
     28 C           2.4368   -1.3422   20.3572 C.ar    1  UNL1        0.0293
     29 C           3.2652   -1.8811   19.2288 C.ar    1  UNL1        0.1422
     30 F           3.3088   -3.3580   18.9692 F       1  UNL1       -0.2041
     31 C           4.0499   -0.9435   18.3600 C.ar    1  UNL1        0.0592
     32 C           4.0061    0.5333   18.6196 C.ar    1  UNL1        0.1422
     33 F           4.7909    1.4710   17.7508 F       1  UNL1       -0.2041
     34 C           3.1778    1.0723   19.7480 C.ar    1  UNL1        0.0293
     35 C           4.1282    0.1240   24.7245 C.3     1  UNL1        0.1010
     36 C           4.3017   -1.2830   25.2145 C.3     1  UNL1        0.0539
     37 C           5.0428   -2.2828   24.3772 C.3     1  UNL1        0.1440
     38 O           4.2995   -3.1305   23.3878 O.3     1  UNL1       -0.3510
     39 C           5.0135   -3.6888   22.1926 C.3     1  UNL1        0.1741
@<TRIPOS>BOND
     1    25    26    1
     2    26    13    1
     3    13    14   ar
     4    14    15   ar
     5    15    16    1
     6    15    17   ar
     7    17    18   ar
     8    18    19    1
     9    18    20   ar
    10    20     1    1
    11     1     2   ar
    12     2     3   ar
    13     3     4   ar
    14     4     5   ar
    15     5     6   ar
    16     5     7    1
    17     7    35    1
    18    35    36    1
    19    36    37    1
    20    37    38    1
    21    38    39    1
    22     7     8   am
    23     8     9    2
    24     8    10    1
    25    10    11    1
    26    10    27    1
    27    27    28   ar
    28    28    29   ar
    29    29    30    1
    30    29    31   ar
    31    31    32   ar
    32    32    33    1
    33    32    34   ar
    34    10    12    1
    35    20    13   ar
    36     6     1   ar
    37    34    27   ar
    38    12     4    1
    39    16    21    1
    40    16    22    1
    41    19    23    1
    42    19    24    1
@<TRIPOS>MOLECULE
*****
 39 42 0 0 0
SMALL
GASTEIGER

@<TRIPOS>ATOM
      1 C           0.5638    1.7532   26.5526 C.ar    1  UNL1        0.0053
      2 C          -0.6303    2.1600   25.7411 C.ar    1  UNL1        0.0033
      3 C          -0.6415    1.9342   24.2582 C.ar    1  UNL1        0.0382
      4 C           0.5414    1.3017   23.5869 C.ar    1  UNL1        0.1529
      5 C           1.7355    0.8949   24.3985 C.ar    1  UNL1        0.0881
      6 C           1.7467    1.1207   25.8813 C.ar    1  UNL1        0.0181
      7 N           2.9184    0.2624   23.7272 N.am    1  UNL1       -0.2528
      8 C           2.9072    0.0366   22.2444 C.2     1  UNL1        0.2697
      9 O           4.0902   -0.5959   21.5731 O.2     1  UNL1       -0.2704
     10 C           1.7131    0.4434   21.4327 C.3     1  UNL1        0.2199
     11 C           0.8224    0.6561   20.2447 C.3     1  UNL1        0.0579
     12 O           0.5302    1.0759   22.1040 O.3     1  UNL1       -0.4686
     13 C           1.0916    3.2720   28.5934 C.ar    1  UNL1        0.0645
     14 N           1.1029    3.4978   30.0762 N.ar    1  UNL1       -0.2183
     15 C           0.5974    2.4306   31.0013 C.ar    1  UNL1        0.2145
     16 N           0.6087    2.6564   32.4841 N.pl3   1  UNL1       -0.3274
     17 N           0.0808    1.1376   30.4434 N.ar    1  UNL1       -0.1995
     18 C           0.0696    0.9118   28.9605 C.ar    1  UNL1        0.1293
     19 N          -0.4471   -0.3812   28.4026 N.pl3   1  UNL1       -0.3425
     20 C           0.5750    1.9790   28.0355 C.ar    1  UNL1        0.0449
     21 H           0.9478    3.5051   32.8502 H       1  UNL1        0.1452
     22 H           0.2770    1.9560   33.0912 H       1  UNL1        0.1452
     23 H          -0.7788   -1.0816   29.0097 H       1  UNL1        0.1437
     24 H          -0.4544   -0.5294   27.4294 H       1  UNL1        0.1437
     25 C           3.0622    4.4330   27.3609 C.3     1  UNL1        0.0067
     26 C           1.5970    4.3393   27.6683 C.3     1  UNL1        0.0460
     27 C           2.5867   -0.1153   20.3489 C.ar    1  UNL1        0.0264
     28 C           2.6107   -1.5929   20.0919 C.ar    1  UNL1        0.0293
     29 C           3.4843   -2.1515   19.0080 C.ar    1  UNL1        0.1422
     30 F           3.5082   -3.6292   18.7510 F       1  UNL1       -0.2041
     31 C           4.3338   -1.2326   18.1812 C.ar    1  UNL1        0.0592
     32 C           4.3098    0.2450   18.4382 C.ar    1  UNL1        0.1422
     33 F           5.1594    1.1640   17.6113 F       1  UNL1       -0.2041
     34 C           3.4363    0.8037   19.5220 C.ar    1  UNL1        0.0293
     35 C           4.1125   -0.1443   24.5388 C.3     1  UNL1        0.1010
     36 C           4.1569   -1.4994   25.1805 C.3     1  UNL1        0.0539
     37 C           4.4107   -1.6236   26.6537 C.3     1  UNL1        0.1440
     38 O           3.2612   -1.6036   27.6170 O.3     1  UNL1       -0.3510
     39 C           3.3016   -0.7010   28.8143 C.3     1  UNL1        0.1741
@<TRIPOS>BOND
     1    25    26    1
     2    26    13    1
     3    13    14   ar
     4    14    15   ar
     5    15    16    1
     6    15    17   ar
     7    17    18   ar
     8    18    19    1
     9    18    20   ar
    10    20     1    1
    11     1     2   ar
    12     2     3   ar
    13     3     4   ar
    14     4     5   ar
    15     5     6   ar
    16     5     7    1
    17     7    35    1
    18    35    36    1
    19    36    37    1
    20    37    38    1
    21    38    39    1
    22     7     8   am
    23     8     9    2
    24     8    10    1
    25    10    11    1
    26    10    27    1
    27    27    28   ar
    28    28    29   ar
    29    29    30    1
    30    29    31   ar
    31    31    32   ar
    32    32    33    1
    33    32    34   ar
    34    10    12    1
    35    20    13   ar
    36     6     1   ar
    37    34    27   ar
    38    12     4    1
    39    16    21    1
    40    16    22    1
    41    19    23    1
    42    19    24    1
@<TRIPOS>MOLECULE
*****
 39 42 0 0 0
SMALL
GASTEIGER

@<TRIPOS>ATOM
      1 C           0.5876    1.7884   26.5840 C.ar    1  UNL1        0.0053
      2 C          -0.6022    2.2026   25.7700 C.ar    1  UNL1        0.0033
      3 C          -0.6127    1.9747   24.2875 C.ar    1  UNL1        0.0382
      4 C           0.5666    1.3326   23.6190 C.ar    1  UNL1        0.1529
      5 C           1.7564    0.9183   24.4331 C.ar    1  UNL1        0.0881
      6 C           1.7669    1.1462   25.9156 C.ar    1  UNL1        0.0181
      7 N           2.9357    0.2762   23.7646 N.am    1  UNL1       -0.2528
      8 C           2.9252    0.0483   22.2821 C.2     1  UNL1        0.2697
      9 O           4.1046   -0.5939   21.6136 O.2     1  UNL1       -0.2704
     10 C           1.7354    0.4625   21.4679 C.3     1  UNL1        0.2199
     11 C           0.8481    0.6800   20.2782 C.3     1  UNL1        0.0579
     12 O           0.5561    1.1047   22.1364 O.3     1  UNL1       -0.4686
     13 C           1.1181    3.3085   28.6231 C.ar    1  UNL1        0.0645
     14 N           1.1287    3.5364   30.1056 N.ar    1  UNL1       -0.2183
     15 C           0.6192    2.4721   31.0318 C.ar    1  UNL1        0.2145
     16 N           0.6297    2.7000   32.5143 N.pl3   1  UNL1       -0.3274
     17 N           0.0992    1.1798   30.4753 N.ar    1  UNL1       -0.1995
     18 C           0.0886    0.9519   28.9927 C.ar    1  UNL1        0.1293
     19 N          -0.4314   -0.3403   28.4362 N.pl3   1  UNL1       -0.3425
     20 C           0.5981    2.0163   28.0666 C.ar    1  UNL1        0.0449
     21 H           0.9711    3.5481   32.8795 H       1  UNL1        0.1452
     22 H           0.2954    2.0014   33.1221 H       1  UNL1        0.1452
     23 H          -0.7658   -1.0389   29.0440 H       1  UNL1        0.1437
     24 H          -0.4383   -0.4899   27.4632 H       1  UNL1        0.1437
     25 C           3.0950    4.4704   27.4016 C.3     1  UNL1        0.0067
     26 C           1.6276    4.3729   27.6970 C.3     1  UNL1        0.0460
     27 C           2.6066   -0.1041   20.3863 C.ar    1  UNL1        0.0264
     28 C           3.4894    0.8034   19.5819 C.ar    1  UNL1        0.0293
     29 C           4.3606    0.2367   18.5002 C.ar    1  UNL1        0.1422
     30 F           5.2435    1.1443   17.6958 F       1  UNL1       -0.2041
     31 C           4.3490   -1.2373   18.2230 C.ar    1  UNL1        0.0592
     32 C           3.4661   -2.1448   19.0274 C.ar    1  UNL1        0.1422
     33 F           3.4545   -3.6189   18.7501 F       1  UNL1       -0.2041
     34 C           2.5949   -1.5782   20.1090 C.ar    1  UNL1        0.0293
     35 C           4.1255   -0.1381   24.5786 C.3     1  UNL1        0.1010
     36 C           4.1531   -1.4872   25.2338 C.3     1  UNL1        0.0539
     37 C           4.4043   -1.5999   26.7083 C.3     1  UNL1        0.1440
     38 O           3.2531   -1.5704   27.6696 O.3     1  UNL1       -0.3510
     39 C           3.3017   -0.6733   28.8707 C.3     1  UNL1        0.1741
@<TRIPOS>BOND
     1    25    26    1
     2    26    13    1
     3    13    14   ar
     4    14    15   ar
     5    15    16    1
     6    15    17   ar
     7    17    18   ar
     8    18    19    1
     9    18    20   ar
    10    20     1    1
    11     1     2   ar
    12     2     3   ar
    13     3     4   ar
    14     4     5   ar
    15     5     6   ar
    16     5     7    1
    17     7    35    1
    18    35    36    1
    19    36    37    1
    20    37    38    1
    21    38    39    1
    22     7     8   am
    23     8     9    2
    24     8    10    1
    25    10    11    1
    26    10    27    1
    27    27    28   ar
    28    28    29   ar
    29    29    30    1
    30    29    31   ar
    31    31    32   ar
    32    32    33    1
    33    32    34   ar
    34    10    12    1
    35    20    13   ar
    36     6     1   ar
    37    34    27   ar
    38    12     4    1
    39    16    21    1
    40    16    22    1
    41    19    23    1
    42    19    24    1
@<TRIPOS>MOLECULE
*****
 39 42 0 0 0
SMALL
GASTEIGER

@<TRIPOS>ATOM
      1 C           2.7334    0.3082   28.0750 C.ar    1  UNL1        0.0053
      2 C           3.5862   -0.8662   28.4536 C.ar    1  UNL1        0.0033
      3 C           4.2683   -1.6722   27.3882 C.ar    1  UNL1        0.0382
      4 C           4.0975   -1.3038   25.9442 C.ar    1  UNL1        0.1529
      5 C           3.2447   -0.1293   25.5656 C.ar    1  UNL1        0.0881
      6 C           2.5627    0.6766   26.6310 C.ar    1  UNL1        0.0181
      7 N           3.0740    0.2391   24.1217 N.am    1  UNL1       -0.2528
      8 C           3.7561   -0.5669   23.0563 C.2     1  UNL1        0.2697
      9 O           3.5854   -0.1984   21.6123 O.2     1  UNL1       -0.2704
     10 C           4.6090   -1.7414   23.4348 C.3     1  UNL1        0.2199
     11 C           5.5113   -2.9314   23.2951 C.3     1  UNL1        0.0579
     12 O           4.7797   -2.1098   24.8788 O.3     1  UNL1       -0.4686
     13 C           0.6354    0.8027   29.5255 C.ar    1  UNL1        0.0645
     14 N          -0.0468    1.6087   30.5909 N.ar    1  UNL1       -0.2183
     15 C           0.6870    2.7263   31.2712 C.ar    1  UNL1        0.2145
     16 N           0.0048    3.5323   32.3366 N.pl3   1  UNL1       -0.3274
     17 N           2.1028    3.0378   30.8861 N.ar    1  UNL1       -0.1995
     18 C           2.7850    2.2318   29.8207 C.ar    1  UNL1        0.1293
     19 N           4.2008    2.5433   29.4356 N.pl3   1  UNL1       -0.3425
     20 C           2.0512    1.1143   29.1404 C.ar    1  UNL1        0.0449
     21 H          -0.9244    3.3278   32.5893 H       1  UNL1        0.1452
     22 H           0.4864    4.2658   32.7831 H       1  UNL1        0.1452
     23 H           4.6824    3.2767   29.8821 H       1  UNL1        0.1437
     24 H           4.6485    2.0143   28.7364 H       1  UNL1        0.1437
     25 C          -1.5881   -0.4258   28.9805 C.3     1  UNL1        0.0067
     26 C          -0.0983   -0.3148   28.8452 C.3     1  UNL1        0.0460
     27 C           4.7516   -1.7862   21.9424 C.ar    1  UNL1        0.0264
     28 C           5.7887   -0.9423   21.2624 C.ar    1  UNL1        0.0293
     29 C           5.9313   -0.9872   19.7698 C.ar    1  UNL1        0.1422
     30 F           6.9684   -0.1432   19.0899 F       1  UNL1       -0.2041
     31 C           5.0370   -1.8758   18.9573 C.ar    1  UNL1        0.0592
     32 C           3.9999   -2.7197   19.6373 C.ar    1  UNL1        0.1422
     33 F           3.1055   -3.6085   18.8247 F       1  UNL1       -0.2041
     34 C           3.8572   -2.6750   21.1298 C.ar    1  UNL1        0.0293
     35 C           2.2212    1.4136   23.7431 C.3     1  UNL1        0.1010
     36 C           0.8055    1.1993   23.2960 C.3     1  UNL1        0.0539
     37 C           0.3921    1.5818   21.9057 C.3     1  UNL1        0.1440
     38 O          -0.0645    0.5267   20.9421 O.3     1  UNL1       -0.3510
     39 C           0.7108    0.2749   19.6830 C.3     1  UNL1        0.1741
@<TRIPOS>BOND
     1    25    26    1
     2    26    13    1
     3    13    14   ar
     4    14    15   ar
     5    15    16    1
     6    15    17   ar
     7    17    18   ar
     8    18    19    1
     9    18    20   ar
    10    20     1    1
    11     1     2   ar
    12     2     3   ar
    13     3     4   ar
    14     4     5   ar
    15     5     6   ar
    16     5     7    1
    17     7    35    1
    18    35    36    1
    19    36    37    1
    20    37    38    1
    21    38    39    1
    22     7     8   am
    23     8     9    2
    24     8    10    1
    25    10    11    1
    26    10    27    1
    27    27    28   ar
    28    28    29   ar
    29    29    30    1
    30    29    31   ar
    31    31    32   ar
    32    32    33    1
    33    32    34   ar
    34    10    12    1
    35    20    13   ar
    36     6     1   ar
    37    34    27   ar
    38    12     4    1
    39    16    21    1
    40    16    22    1
    41    19    23    1
    42    19    24    1
@<TRIPOS>MOLECULE
*****
 39 42 0 0 0
SMALL
GASTEIGER

@<TRIPOS>ATOM
      1 C          -4.7041  -18.9084   21.5301 C.ar    1  UNL1        0.0053
      2 C          -4.8815  -20.3642   21.8448 C.ar    1  UNL1        0.0033
      3 C          -6.2182  -20.8774   22.2917 C.ar    1  UNL1        0.0382
      4 C          -7.3775  -19.9348   22.4239 C.ar    1  UNL1        0.1529
      5 C          -7.2001  -18.4790   22.1092 C.ar    1  UNL1        0.0881
      6 C          -5.8634  -17.9658   21.6624 C.ar    1  UNL1        0.0181
      7 N          -8.3594  -17.5364   22.2414 N.am    1  UNL1       -0.2528
      8 C          -9.6961  -18.0496   22.6883 C.2     1  UNL1        0.2697
      9 O         -10.8554  -17.1070   22.8205 O.2     1  UNL1       -0.2704
     10 C          -9.8736  -19.5055   23.0030 C.3     1  UNL1        0.2199
     11 C         -10.5332  -20.7888   23.4131 C.3     1  UNL1        0.0579
     12 O          -8.7143  -20.4481   22.8708 O.3     1  UNL1       -0.4686
     13 C          -2.6734  -17.3240   21.8715 C.ar    1  UNL1        0.0645
     14 N          -1.3367  -16.8108   21.4247 N.ar    1  UNL1       -0.2183
     15 C          -0.6938  -17.3685   20.1895 C.ar    1  UNL1        0.2145
     16 N           0.6429  -16.8552   19.7426 N.pl3   1  UNL1       -0.3274
     17 N          -1.3877  -18.4396   19.4012 N.ar    1  UNL1       -0.1995
     18 C          -2.7244  -18.9529   19.8481 C.ar    1  UNL1        0.1293
     19 N          -3.4183  -20.0239   19.0598 N.pl3   1  UNL1       -0.3425
     20 C          -3.3673  -18.3951   21.0832 C.ar    1  UNL1        0.0449
     21 H           1.0983  -16.1523   20.2600 H       1  UNL1        0.1452
     22 H           1.0648  -17.2213   18.9320 H       1  UNL1        0.1452
     23 H          -2.9964  -20.3900   18.2491 H       1  UNL1        0.1437
     24 H          -4.2956  -20.3608   19.3531 H       1  UNL1        0.1437
     25 C          -3.4680  -17.6258   24.3267 C.3     1  UNL1        0.0067
     26 C          -3.3164  -16.7663   23.1067 C.3     1  UNL1        0.0460
     27 C         -11.2619  -19.0086   23.2776 C.ar    1  UNL1        0.0264
     28 C         -11.7803  -18.9704   24.6847 C.ar    1  UNL1        0.0293
     29 C         -13.1687  -18.4734   24.9593 C.ar    1  UNL1        0.1422
     30 F         -13.6870  -18.4353   26.3665 F       1  UNL1       -0.2041
     31 C         -14.0387  -18.0147   23.8269 C.ar    1  UNL1        0.0592
     32 C         -13.5204  -18.0528   22.4198 C.ar    1  UNL1        0.1422
     33 F         -14.3905  -17.5940   21.2874 F       1  UNL1       -0.2041
     34 C         -12.1321  -18.5498   22.1451 C.ar    1  UNL1        0.0293
     35 C          -8.1820  -16.0806   21.9268 C.3     1  UNL1        0.1010
     36 C          -7.7898  -15.1212   23.0111 C.3     1  UNL1        0.0539
     37 C          -7.0429  -15.6145   24.2149 C.3     1  UNL1        0.1440
     38 O          -5.9220  -14.7990   24.7881 O.3     1  UNL1       -0.3510
     39 C          -5.4240  -15.0790   26.1750 C.3     1  UNL1        0.1741
@<TRIPOS>BOND
     1    25    26    1
     2    26    13    1
     3    13    14   ar
     4    14    15   ar
     5    15    16    1
     6    15    17   ar
     7    17    18   ar
     8    18    19    1
     9    18    20   ar
    10    20     1    1
    11     1     2   ar
    12     2     3   ar
    13     3     4   ar
    14     4     5   ar
    15     5     6   ar
    16     5     7    1
    17     7    35    1
    18    35    36    1
    19    36    37    1
    20    37    38    1
    21    38    39    1
    22     7     8   am
    23     8     9    2
    24     8    10    1
    25    10    11    1
    26    10    27    1
    27    27    28   ar
    28    28    29   ar
    29    29    30    1
    30    29    31   ar
    31    31    32   ar
    32    32    33    1
    33    32    34   ar
    34    10    12    1
    35    20    13   ar
    36     6     1   ar
    37    34    27   ar
    38    12     4    1
    39    16    21    1
    40    16    22    1
    41    19    23    1
    42    19    24    1
@<TRIPOS>MOLECULE
*****
 39 42 0 0 0
SMALL
GASTEIGER

@<TRIPOS>ATOM
      1 C          -4.6743  -18.9085   21.5327 C.ar    1  UNL1        0.0053
      2 C          -4.8526  -20.3620   21.8575 C.ar    1  UNL1        0.0033
      3 C          -6.1904  -20.8718   22.3049 C.ar    1  UNL1        0.0382
      4 C          -7.3499  -19.9281   22.4276 C.ar    1  UNL1        0.1529
      5 C          -7.1716  -18.4747   22.1028 C.ar    1  UNL1        0.0881
      6 C          -5.8338  -17.9648   21.6554 C.ar    1  UNL1        0.0181
      7 N          -8.3311  -17.5310   22.2255 N.am    1  UNL1       -0.2528
      8 C          -9.6689  -18.0408   22.6729 C.2     1  UNL1        0.2697
      9 O         -10.8284  -17.0971   22.7956 O.2     1  UNL1       -0.2704
     10 C          -9.8473  -19.4944   22.9977 C.3     1  UNL1        0.2199
     11 C         -10.5080  -20.7746   23.4155 C.3     1  UNL1        0.0579
     12 O          -8.6878  -20.4380   22.8750 O.3     1  UNL1       -0.4686
     13 C          -2.6419  -17.3257   21.8703 C.ar    1  UNL1        0.0645
     14 N          -1.3040  -16.8158   21.4229 N.ar    1  UNL1       -0.2183
     15 C          -0.6607  -17.3788   20.1904 C.ar    1  UNL1        0.2145
     16 N           0.6771  -16.8689   19.7429 N.pl3   1  UNL1       -0.3274
     17 N          -1.3552  -18.4518   19.4052 N.ar    1  UNL1       -0.1995
     18 C          -2.6931  -18.9617   19.8527 C.ar    1  UNL1        0.1293
     19 N          -3.3877  -20.0346   19.0676 N.pl3   1  UNL1       -0.3425
     20 C          -3.3364  -18.3986   21.0852 C.ar    1  UNL1        0.0449
     21 H           1.1330  -16.1647   20.2583 H       1  UNL1        0.1452
     22 H           1.0993  -17.2385   18.9340 H       1  UNL1        0.1452
     23 H          -2.9655  -20.4041   18.2586 H       1  UNL1        0.1437
     24 H          -4.2658  -20.3693   19.3613 H       1  UNL1        0.1437
     25 C          -3.4486  -17.6207   24.3223 C.3     1  UNL1        0.0067
     26 C          -3.2852  -16.7626   23.1029 C.3     1  UNL1        0.0460
     27 C         -11.2363  -18.9953   23.2655 C.ar    1  UNL1        0.0264
     28 C         -12.0960  -18.5248   22.1300 C.ar    1  UNL1        0.0293
     29 C         -13.4850  -18.0257   22.3978 C.ar    1  UNL1        0.1422
     30 F         -14.3448  -17.5551   21.2621 F       1  UNL1       -0.2041
     31 C         -14.0142  -17.9972   23.8009 C.ar    1  UNL1        0.0592
     32 C         -13.1545  -18.4677   24.9364 C.ar    1  UNL1        0.1422
     33 F         -13.6837  -18.4392   26.3397 F       1  UNL1       -0.2041
     34 C         -11.7655  -18.9668   24.6687 C.ar    1  UNL1        0.0293
     35 C          -8.1528  -16.0775   21.9007 C.3     1  UNL1        0.1010
     36 C          -7.8438  -15.0973   22.9933 C.3     1  UNL1        0.0539
     37 C          -7.1667  -15.5621   24.2485 C.3     1  UNL1        0.1440
     38 O          -5.9897  -14.8060   24.7898 O.3     1  UNL1       -0.3510
     39 C          -5.4349  -15.1488   26.1406 C.3     1  UNL1        0.1741
@<TRIPOS>BOND
     1    25    26    1
     2    26    13    1
     3    13    14   ar
     4    14    15   ar
     5    15    16    1
     6    15    17   ar
     7    17    18   ar
     8    18    19    1
     9    18    20   ar
    10    20     1    1
    11     1     2   ar
    12     2     3   ar
    13     3     4   ar
    14     4     5   ar
    15     5     6   ar
    16     5     7    1
    17     7    35    1
    18    35    36    1
    19    36    37    1
    20    37    38    1
    21    38    39    1
    22     7     8   am
    23     8     9    2
    24     8    10    1
    25    10    11    1
    26    10    27    1
    27    27    28   ar
    28    28    29   ar
    29    29    30    1
    30    29    31   ar
    31    31    32   ar
    32    32    33    1
    33    32    34   ar
    34    10    12    1
    35    20    13   ar
    36     6     1   ar
    37    34    27   ar
    38    12     4    1
    39    16    21    1
    40    16    22    1
    41    19    23    1
    42    19    24    1
@<TRIPOS>MOLECULE
*****
 39 42 0 0 0
SMALL
GASTEIGER

@<TRIPOS>ATOM
      1 C           1.2288    1.3636   26.3762 C.ar    1  UNL1        0.0053
      2 C           0.3485    2.1135   25.4208 C.ar    1  UNL1        0.0033
      3 C           0.4847    1.8916   23.9436 C.ar    1  UNL1        0.0382
      4 C           1.5013    0.9199   23.4218 C.ar    1  UNL1        0.1529
      5 C           2.3817    0.1700   24.3771 C.ar    1  UNL1        0.0881
      6 C           2.2454    0.3919   25.8543 C.ar    1  UNL1        0.0181
      7 N           3.3983   -0.8017   23.8553 N.am    1  UNL1       -0.2528
      8 C           3.5345   -1.0236   22.3781 C.2     1  UNL1        0.2697
      9 O           4.5511   -1.9953   21.8562 O.2     1  UNL1       -0.2704
     10 C           2.6541   -0.2737   21.4226 C.3     1  UNL1        0.2199
     11 C           2.0545    0.1952   20.1302 C.3     1  UNL1        0.0579
     12 O           1.6375    0.6980   21.9445 O.3     1  UNL1       -0.4686
     13 C           1.8833    2.6688   28.5252 C.ar    1  UNL1        0.0645
     14 N           1.7472    2.8907   30.0024 N.ar    1  UNL1       -0.2183
     15 C           0.8202    2.0293   30.8079 C.ar    1  UNL1        0.2145
     16 N           0.6840    2.2512   32.2851 N.pl3   1  UNL1       -0.3274
     17 N           0.0295    0.9460   30.1362 N.ar    1  UNL1       -0.1995
     18 C           0.1657    0.7241   28.6589 C.ar    1  UNL1        0.1293
     19 N          -0.6250   -0.3592   27.9872 N.pl3   1  UNL1       -0.3425
     20 C           1.0926    1.5855   27.8535 C.ar    1  UNL1        0.0449
     21 H           1.2030    2.9622   32.7260 H       1  UNL1        0.1452
     22 H           0.0757    1.6858   32.8138 H       1  UNL1        0.1452
     23 H          -1.2334   -0.9245   28.5158 H       1  UNL1        0.1437
     24 H          -0.5356   -0.5048   27.0176 H       1  UNL1        0.1437
     25 C           2.3334    4.8470   27.1824 C.3     1  UNL1        0.0067
     26 C           2.8103    3.5302   27.7197 C.3     1  UNL1        0.0460
     27 C           3.4625   -1.0826   20.4519 C.ar    1  UNL1        0.0264
     28 C           4.7379   -0.5264   19.8917 C.ar    1  UNL1        0.0293
     29 C           5.5463   -1.3353   18.9209 C.ar    1  UNL1        0.1422
     30 F           6.8218   -0.7790   18.3607 F       1  UNL1       -0.2041
     31 C           5.0792   -2.7003   18.5105 C.ar    1  UNL1        0.0592
     32 C           3.8038   -3.2564   19.0707 C.ar    1  UNL1        0.1422
     33 F           3.3367   -4.6215   18.6602 F       1  UNL1       -0.2041
     34 C           2.9954   -2.4476   20.0415 C.ar    1  UNL1        0.0293
     35 C           4.2786   -1.5515   24.8106 C.3     1  UNL1        0.1010
     36 C           5.7399   -1.2245   24.8983 C.3     1  UNL1        0.0539
     37 C           6.7635   -2.2959   24.6649 C.3     1  UNL1        0.1440
     38 O           6.3257   -3.6985   24.3631 O.3     1  UNL1       -0.3510
     39 C           7.2179   -4.6090   23.5727 C.3     1  UNL1        0.1741
@<TRIPOS>BOND
     1    25    26    1
     2    26    13    1
     3    13    14   ar
     4    14    15   ar
     5    15    16    1
     6    15    17   ar
     7    17    18   ar
     8    18    19    1
     9    18    20   ar
    10    20     1    1
    11     1     2   ar
    12     2     3   ar
    13     3     4   ar
    14     4     5   ar
    15     5     6   ar
    16     5     7    1
    17     7    35    1
    18    35    36    1
    19    36    37    1
    20    37    38    1
    21    38    39    1
    22     7     8   am
    23     8     9    2
    24     8    10    1
    25    10    11    1
    26    10    27    1
    27    27    28   ar
    28    28    29   ar
    29    29    30    1
    30    29    31   ar
    31    31    32   ar
    32    32    33    1
    33    32    34   ar
    34    10    12    1
    35    20    13   ar
    36     6     1   ar
    37    34    27   ar
    38    12     4    1
    39    16    21    1
    40    16    22    1
    41    19    23    1
    42    19    24    1
