@<TRIPOS>MOLECULE
*****
 34 36 0 0 0
SMALL
GASTEIGER

@<TRIPOS>ATOM
      1 C           3.7344   -3.2128   19.7970 C.2     1  UNL1        0.1985
      2 O           3.0447   -4.3908   19.1753 O.2     1  UNL1       -0.2865
      3 C           4.1511   -1.2653   18.1285 C.ar    1  UNL1        0.1418
      4 C           3.8443    0.1224   17.6489 C.ar    1  UNL1        0.0376
      5 C           2.8141    0.9505   18.3581 C.ar    1  UNL1        0.0114
      6 C           2.0906    0.3908   19.5470 C.ar    1  UNL1        0.0420
      7 C           2.3974   -0.9969   20.0265 C.ar    1  UNL1        0.0145
      8 C           3.4276   -1.8250   19.3173 C.ar    1  UNL1        0.0735
      9 C           6.6314   -1.9538   17.7766 C.3     1  UNL1        0.2525
     10 O           5.1813   -2.0933   17.4193 O.3     1  UNL1       -0.4713
     11 C           1.0604    1.2188   20.2562 C.1     1  UNL1       -0.0632
     12 C           0.0302    2.0468   20.9654 C.1     1  UNL1       -0.0737
     13 C          -1.0000    2.8749   21.6746 C.3     1  UNL1        0.0941
     14 C          -0.2543    2.6983   22.9641 C.3     1  UNL1        0.0290
     15 C          -1.7458    3.0515   20.3852 C.3     1  UNL1        0.0290
     16 N          -2.0303    3.7029   22.3839 N.3     1  UNL1       -0.3139
     17 H          -1.7857    3.7774   23.3713 H       1  UNL1        0.1196
     18 H          -2.9444    3.2597   22.2925 H       1  UNL1        0.1196
     19 C           4.7309   -3.4225   20.8983 C.ar    1  UNL1        0.0391
     20 C           6.1271   -3.8638   20.5725 C.ar    1  UNL1        0.0045
     21 C           7.1236   -4.0735   21.6739 C.ar    1  UNL1        0.0147
     22 C           6.7239   -3.8419   23.1011 C.ar    1  UNL1        0.0484
     23 C           5.3279   -3.4006   23.4268 C.ar    1  UNL1        0.0147
     24 C           4.3313   -3.1909   22.3254 C.ar    1  UNL1        0.0045
     25 N           7.7204   -4.0516   24.2024 N.pl3   1  UNL1       -0.3108
     26 H           8.3604   -3.3388   24.4295 H       1  UNL1        0.1523
     27 C           7.7418   -5.3474   24.9578 C.ar    1  UNL1        0.0763
     28 C           8.4169   -6.5492   24.3663 C.ar    1  UNL1        0.0192
     29 C           8.4383   -7.8450   25.1217 C.ar    1  UNL1        0.0311
     30 C           7.7846   -7.9389   26.4685 C.ar    1  UNL1        0.1425
     31 F           7.8060   -9.2347   27.2238 F       1  UNL1       -0.2041
     32 C           7.1095   -6.7371   27.0599 C.ar    1  UNL1        0.0605
     33 C           7.0882   -5.4413   26.3046 C.ar    1  UNL1        0.1556
     34 F           6.4131   -4.2394   26.8960 F       1  UNL1       -0.2028
@<TRIPOS>BOND
     1     9    10    1
     2    10     3    1
     3     3     4   ar
     4     4     5   ar
     5     5     6   ar
     6     6    11    1
     7    11    12    3
     8    12    13    1
     9    13    14    1
    10    13    15    1
    11    13    16    1
    12     6     7   ar
    13     7     8   ar
    14     8     1    1
    15     1     2    2
    16     1    19    1
    17    19    20   ar
    18    20    21   ar
    19    21    22   ar
    20    22    25    1
    21    25    27    1
    22    27    28   ar
    23    28    29   ar
    24    29    30   ar
    25    30    31    1
    26    30    32   ar
    27    32    33   ar
    28    33    34    1
    29    22    23   ar
    30    23    24   ar
    31     8     3   ar
    32    24    19   ar
    33    33    27   ar
    34    16    17    1
    35    16    18    1
    36    25    26    1
@<TRIPOS>MOLECULE
*****
 34 36 0 0 0
SMALL
GASTEIGER

@<TRIPOS>ATOM
      1 C           3.7563   -3.2638   19.8212 C.2     1  UNL1        0.1985
      2 O           3.0535   -4.4434   19.2174 O.2     1  UNL1       -0.2865
      3 C           4.1572   -1.3271   18.1363 C.ar    1  UNL1        0.1418
      4 C           3.8479    0.0585   17.6524 C.ar    1  UNL1        0.0376
      5 C           2.8285    0.8933   18.3694 C.ar    1  UNL1        0.0114
      6 C           2.1184    0.3424   19.5703 C.ar    1  UNL1        0.0420
      7 C           2.4277   -1.0433   20.0542 C.ar    1  UNL1        0.0145
      8 C           3.4471   -1.8781   19.3372 C.ar    1  UNL1        0.0735
      9 C           6.6339   -2.0024   17.7365 C.3     1  UNL1        0.2525
     10 O           5.1765   -2.1619   17.4193 O.3     1  UNL1       -0.4713
     11 C           1.0990    1.1771   20.2873 C.1     1  UNL1       -0.0632
     12 C           0.0796    2.0119   21.0042 C.1     1  UNL1       -0.0737
     13 C          -0.9397    2.8466   21.7212 C.3     1  UNL1        0.0941
     14 C          -1.6920    3.0313   20.4367 C.3     1  UNL1        0.0290
     15 C          -0.1875    2.6619   23.0058 C.3     1  UNL1        0.0290
     16 N          -1.9591    3.6813   22.4382 N.3     1  UNL1       -0.3139
     17 H          -2.6724    3.9890   21.7772 H       1  UNL1        0.1196
     18 H          -1.5031    4.4956   22.8498 H       1  UNL1        0.1196
     19 C           4.7684   -3.4699   20.9089 C.ar    1  UNL1        0.0391
     20 C           4.3690   -3.3071   22.3456 C.ar    1  UNL1        0.0045
     21 C           5.3811   -3.5132   23.4334 C.ar    1  UNL1        0.0147
     22 C           6.7926   -3.8820   23.0844 C.ar    1  UNL1        0.0484
     23 C           7.1919   -4.0448   21.6478 C.ar    1  UNL1        0.0147
     24 C           6.1799   -3.8387   20.5600 C.ar    1  UNL1        0.0045
     25 N           7.8047   -4.0881   24.1722 N.pl3   1  UNL1       -0.3108
     26 H           8.4848   -3.3985   24.3489 H       1  UNL1        0.1523
     27 C           7.7806   -5.3448   24.9908 C.ar    1  UNL1        0.0763
     28 C           7.3500   -5.2964   26.4268 C.ar    1  UNL1        0.0192
     29 C           7.3259   -6.5532   27.2453 C.ar    1  UNL1        0.0311
     30 C           7.7324   -7.8583   26.6278 C.ar    1  UNL1        0.1425
     31 F           7.7083   -9.1151   27.4463 F       1  UNL1       -0.2041
     32 C           8.1629   -7.9067   25.1917 C.ar    1  UNL1        0.0605
     33 C           8.1870   -6.6500   24.3732 C.ar    1  UNL1        0.1556
     34 F           8.6176   -6.6984   22.9371 F       1  UNL1       -0.2028
@<TRIPOS>BOND
     1     9    10    1
     2    10     3    1
     3     3     4   ar
     4     4     5   ar
     5     5     6   ar
     6     6    11    1
     7    11    12    3
     8    12    13    1
     9    13    14    1
    10    13    15    1
    11    13    16    1
    12     6     7   ar
    13     7     8   ar
    14     8     1    1
    15     1     2    2
    16     1    19    1
    17    19    20   ar
    18    20    21   ar
    19    21    22   ar
    20    22    25    1
    21    25    27    1
    22    27    28   ar
    23    28    29   ar
    24    29    30   ar
    25    30    31    1
    26    30    32   ar
    27    32    33   ar
    28    33    34    1
    29    22    23   ar
    30    23    24   ar
    31     8     3   ar
    32    24    19   ar
    33    33    27   ar
    34    16    17    1
    35    16    18    1
    36    25    26    1
@<TRIPOS>MOLECULE
*****
 34 36 0 0 0
SMALL
GASTEIGER

@<TRIPOS>ATOM
      1 C           3.8958   -3.2088   19.9824 C.2     1  UNL1        0.1985
      2 O           3.1576   -4.2983   19.2626 O.2     1  UNL1       -0.2865
      3 C           3.8360   -1.0025   18.6117 C.ar    1  UNL1        0.1418
      4 C           3.3971    0.4243   18.4653 C.ar    1  UNL1        0.0376
      5 C           2.5789    1.0717   19.5430 C.ar    1  UNL1        0.0114
      6 C           2.1998    0.2922   20.7672 C.ar    1  UNL1        0.0420
      7 C           2.6387   -1.1346   20.9136 C.ar    1  UNL1        0.0145
      8 C           3.4569   -1.7820   19.8359 C.ar    1  UNL1        0.0735
      9 C           6.1358   -1.4227   17.4783 C.3     1  UNL1        0.2525
     10 O           4.6542   -1.6499   17.5340 O.3     1  UNL1       -0.4713
     11 C           1.3816    0.9396   21.8450 C.1     1  UNL1       -0.0632
     12 C           0.5635    1.5870   22.9227 C.1     1  UNL1       -0.0737
     13 C          -0.2546    2.2344   24.0005 C.3     1  UNL1        0.0941
     14 C           0.2418    1.2194   24.9870 C.3     1  UNL1        0.0290
     15 C          -0.7511    3.2494   23.0139 C.3     1  UNL1        0.0290
     16 N          -1.0728    2.8818   25.0782 N.3     1  UNL1       -0.3139
     17 H          -0.9399    2.3778   25.9550 H       1  UNL1        0.1196
     18 H          -2.0587    2.8571   24.8179 H       1  UNL1        0.1196
     19 C           5.0730   -3.5462   20.8487 C.ar    1  UNL1        0.0391
     20 C           6.4151   -3.7952   20.2267 C.ar    1  UNL1        0.0045
     21 C           7.5922   -4.1325   21.0930 C.ar    1  UNL1        0.0147
     22 C           7.4273   -4.2209   22.5813 C.ar    1  UNL1        0.0484
     23 C           6.0852   -3.9720   23.2032 C.ar    1  UNL1        0.0147
     24 C           4.9081   -3.6346   22.3369 C.ar    1  UNL1        0.0045
     25 N           8.6044   -4.5583   23.4476 N.pl3   1  UNL1       -0.3108
     26 H           9.4848   -4.1601   23.2588 H       1  UNL1        0.1523
     27 C           8.4403   -5.5024   24.6017 C.ar    1  UNL1        0.0763
     28 C           8.3343   -4.9674   25.9990 C.ar    1  UNL1        0.0192
     29 C           8.1701   -5.9115   27.1530 C.ar    1  UNL1        0.0311
     30 C           8.1119   -7.3905   26.9097 C.ar    1  UNL1        0.1425
     31 F           7.9477   -8.3346   28.0638 F       1  UNL1       -0.2041
     32 C           8.2178   -7.9254   25.5123 C.ar    1  UNL1        0.0605
     33 C           8.3820   -6.9813   24.3584 C.ar    1  UNL1        0.1556
     34 F           8.4880   -7.5162   22.9609 F       1  UNL1       -0.2028
@<TRIPOS>BOND
     1     9    10    1
     2    10     3    1
     3     3     4   ar
     4     4     5   ar
     5     5     6   ar
     6     6    11    1
     7    11    12    3
     8    12    13    1
     9    13    14    1
    10    13    15    1
    11    13    16    1
    12     6     7   ar
    13     7     8   ar
    14     8     1    1
    15     1     2    2
    16     1    19    1
    17    19    20   ar
    18    20    21   ar
    19    21    22   ar
    20    22    25    1
    21    25    27    1
    22    27    28   ar
    23    28    29   ar
    24    29    30   ar
    25    30    31    1
    26    30    32   ar
    27    32    33   ar
    28    33    34    1
    29    22    23   ar
    30    23    24   ar
    31     8     3   ar
    32    24    19   ar
    33    33    27   ar
    34    16    17    1
    35    16    18    1
    36    25    26    1
@<TRIPOS>MOLECULE
*****
 34 36 0 0 0
SMALL
GASTEIGER

@<TRIPOS>ATOM
      1 C         -11.1667   -4.2604   18.5150 C.2     1  UNL1        0.1985
      2 O          -9.9857   -4.6248   19.3649 O.2     1  UNL1       -0.2865
      3 C         -10.3843   -2.1615   17.1986 C.ar    1  UNL1        0.1418
      4 C         -10.5963   -0.7367   16.7805 C.ar    1  UNL1        0.0376
      5 C         -11.8028    0.0142   17.2607 C.ar    1  UNL1        0.0114
      6 C         -12.7972   -0.6597   18.1590 C.ar    1  UNL1        0.0420
      7 C         -12.5852   -2.0845   18.5770 C.ar    1  UNL1        0.0145
      8 C         -11.3787   -2.8355   18.0968 C.ar    1  UNL1        0.0735
      9 C          -9.3451   -4.2087   15.9824 C.3     1  UNL1        0.2525
     10 O          -9.1779   -2.9125   16.7184 O.3     1  UNL1       -0.4713
     11 C         -14.0037    0.0912   18.6392 C.1     1  UNL1       -0.0632
     12 C         -15.2101    0.8422   19.1193 C.1     1  UNL1       -0.0737
     13 C         -16.4166    1.5931   19.5995 C.3     1  UNL1        0.0941
     14 C         -16.0407    2.7544   18.7278 C.3     1  UNL1        0.0290
     15 C         -16.7924    0.4317   20.4713 C.3     1  UNL1        0.0290
     16 N         -17.6230    2.3440   20.0797 N.3     1  UNL1       -0.3139
     17 H         -17.6555    3.2588   19.6297 H       1  UNL1        0.1196
     18 H         -17.5682    2.4644   21.0911 H       1  UNL1        0.1196
     19 C         -12.1358   -5.3208   18.0832 C.ar    1  UNL1        0.0391
     20 C         -12.6652   -6.3053   19.0835 C.ar    1  UNL1        0.0045
     21 C         -13.6342   -7.3657   18.6517 C.ar    1  UNL1        0.0147
     22 C         -14.0739   -7.4416   17.2195 C.ar    1  UNL1        0.0484
     23 C         -13.5445   -6.4571   16.2193 C.ar    1  UNL1        0.0147
     24 C         -12.5755   -5.3967   16.6511 C.ar    1  UNL1        0.0045
     25 N         -15.0430   -8.5020   16.7877 N.pl3   1  UNL1       -0.3108
     26 H         -14.8884   -8.9994   15.9523 H       1  UNL1        0.1523
     27 C         -16.2476   -8.8046   17.6289 C.ar    1  UNL1        0.0763
     28 C         -17.2732   -7.7395   17.8806 C.ar    1  UNL1        0.0192
     29 C         -18.4778   -8.0421   18.7217 C.ar    1  UNL1        0.0311
     30 C         -18.6566   -9.4098   19.3110 C.ar    1  UNL1        0.1425
     31 F         -19.8613   -9.7124   20.1522 F       1  UNL1       -0.2041
     32 C         -17.6310  -10.4750   19.0592 C.ar    1  UNL1        0.0605
     33 C         -16.4265  -10.1723   18.2181 C.ar    1  UNL1        0.1556
     34 F         -15.4007  -11.2375   17.9663 F       1  UNL1       -0.2028
@<TRIPOS>BOND
     1     9    10    1
     2    10     3    1
     3     3     4   ar
     4     4     5   ar
     5     5     6   ar
     6     6    11    1
     7    11    12    3
     8    12    13    1
     9    13    14    1
    10    13    15    1
    11    13    16    1
    12     6     7   ar
    13     7     8   ar
    14     8     1    1
    15     1     2    2
    16     1    19    1
    17    19    20   ar
    18    20    21   ar
    19    21    22   ar
    20    22    25    1
    21    25    27    1
    22    27    28   ar
    23    28    29   ar
    24    29    30   ar
    25    30    31    1
    26    30    32   ar
    27    32    33   ar
    28    33    34    1
    29    22    23   ar
    30    23    24   ar
    31     8     3   ar
    32    24    19   ar
    33    33    27   ar
    34    16    17    1
    35    16    18    1
    36    25    26    1
@<TRIPOS>MOLECULE
*****
 34 36 0 0 0
SMALL
GASTEIGER

@<TRIPOS>ATOM
      1 C         -13.5738   -3.4750   19.9523 C.2     1  UNL1        0.1985
      2 O         -13.7028   -3.2368   21.4276 O.2     1  UNL1       -0.2865
      3 C         -11.9727   -5.3267   19.0817 C.ar    1  UNL1        0.1418
      4 C         -11.7550   -6.7171   18.5627 C.ar    1  UNL1        0.0376
      5 C         -12.9207   -7.6462   18.3953 C.ar    1  UNL1        0.0114
      6 C         -14.3040   -7.1850   18.7469 C.ar    1  UNL1        0.0420
      7 C         -14.5217   -5.7946   19.2659 C.ar    1  UNL1        0.0145
      8 C         -13.3560   -4.8654   19.4333 C.ar    1  UNL1        0.0735
      9 C          -9.9787   -4.0117   18.0597 C.3     1  UNL1        0.2525
     10 O         -10.8071   -4.3976   19.2491 O.3     1  UNL1       -0.4713
     11 C         -15.4696   -8.1141   18.5795 C.1     1  UNL1       -0.0632
     12 C         -16.6352   -9.0432   18.4120 C.1     1  UNL1       -0.0737
     13 C         -17.8008   -9.9724   18.2446 C.3     1  UNL1        0.0941
     14 C         -18.6654   -8.8150   17.8407 C.3     1  UNL1        0.0290
     15 C         -16.9363  -11.1297   18.6485 C.3     1  UNL1        0.0290
     16 N         -18.9665  -10.9015   18.0772 N.3     1  UNL1       -0.3139
     17 H         -19.7849  -10.3701   17.7803 H       1  UNL1        0.1196
     18 H         -19.1642  -11.3624   18.9654 H       1  UNL1        0.1196
     19 C         -13.6625   -2.3228   18.9959 C.ar    1  UNL1        0.0391
     20 C         -12.5320   -1.3418   18.8965 C.ar    1  UNL1        0.0045
     21 C         -12.6208   -0.1897   17.9402 C.ar    1  UNL1        0.0147
     22 C         -13.8400   -0.0185   17.0832 C.ar    1  UNL1        0.0484
     23 C         -14.9704   -0.9994   17.1826 C.ar    1  UNL1        0.0147
     24 C         -14.8816   -2.1516   18.1390 C.ar    1  UNL1        0.0045
     25 N         -13.9287    1.1337   16.1269 N.pl3   1  UNL1       -0.3108
     26 H         -13.9748    0.9666   15.1577 H       1  UNL1        0.1523
     27 C         -13.9473    2.5405   16.6471 C.ar    1  UNL1        0.0763
     28 C         -12.8515    3.4935   16.2717 C.ar    1  UNL1        0.0192
     29 C         -12.8701    4.9003   16.7919 C.ar    1  UNL1        0.0311
     30 C         -13.9845    5.3540   17.6876 C.ar    1  UNL1        0.1425
     31 F         -14.0031    6.7608   18.2079 F       1  UNL1       -0.2041
     32 C         -15.0803    4.4010   18.0630 C.ar    1  UNL1        0.0605
     33 C         -15.0617    2.9943   17.5428 C.ar    1  UNL1        0.1556
     34 F         -16.1575    2.0412   17.9182 F       1  UNL1       -0.2028
@<TRIPOS>BOND
     1     9    10    1
     2    10     3    1
     3     3     4   ar
     4     4     5   ar
     5     5     6   ar
     6     6    11    1
     7    11    12    3
     8    12    13    1
     9    13    14    1
    10    13    15    1
    11    13    16    1
    12     6     7   ar
    13     7     8   ar
    14     8     1    1
    15     1     2    2
    16     1    19    1
    17    19    20   ar
    18    20    21   ar
    19    21    22   ar
    20    22    25    1
    21    25    27    1
    22    27    28   ar
    23    28    29   ar
    24    29    30   ar
    25    30    31    1
    26    30    32   ar
    27    32    33   ar
    28    33    34    1
    29    22    23   ar
    30    23    24   ar
    31     8     3   ar
    32    24    19   ar
    33    33    27   ar
    34    16    17    1
    35    16    18    1
    36    25    26    1
@<TRIPOS>MOLECULE
*****
 34 36 0 0 0
SMALL
GASTEIGER

@<TRIPOS>ATOM
      1 C           5.8399    0.5283   33.2626 C.2     1  UNL1        0.1985
      2 O           7.0258    1.4092   33.5224 O.2     1  UNL1       -0.2865
      3 C           3.8857    1.6436   34.5616 C.ar    1  UNL1        0.1418
      4 C           2.5023    2.2231   34.5810 C.ar    1  UNL1        0.0376
      5 C           1.6897    2.2668   33.3209 C.ar    1  UNL1        0.0114
      6 C           2.2605    1.7310   32.0414 C.ar    1  UNL1        0.0420
      7 C           3.6439    1.1516   32.0220 C.ar    1  UNL1        0.0145
      8 C           4.4565    1.1078   33.2821 C.ar    1  UNL1        0.0735
      9 C           4.6316    0.3974   36.7158 C.3     1  UNL1        0.2525
     10 O           4.6983    1.5999   35.8216 O.3     1  UNL1       -0.4713
     11 C           1.4479    1.7748   30.7814 C.1     1  UNL1       -0.0632
     12 C           0.6353    1.8185   29.5213 C.1     1  UNL1       -0.0737
     13 C          -0.1773    1.8622   28.2612 C.3     1  UNL1        0.0941
     14 C          -0.9370    0.6488   28.7090 C.3     1  UNL1        0.0290
     15 C           0.5823    3.0756   27.8135 C.3     1  UNL1        0.0290
     16 N          -0.9899    1.9059   27.0012 N.3     1  UNL1       -0.3139
     17 H          -1.6611    1.1379   27.0026 H       1  UNL1        0.1196
     18 H          -0.3719    1.8158   26.1947 H       1  UNL1        0.1196
     19 C           6.0374   -0.9322   32.9833 C.ar    1  UNL1        0.0391
     20 C           7.3518   -1.4234   32.4530 C.ar    1  UNL1        0.0045
     21 C           7.5492   -2.8838   32.1737 C.ar    1  UNL1        0.0147
     22 C           6.4323   -3.8531   32.4247 C.ar    1  UNL1        0.0484
     23 C           5.1180   -3.3620   32.9550 C.ar    1  UNL1        0.0147
     24 C           4.9205   -1.9015   33.2343 C.ar    1  UNL1        0.0045
     25 N           6.6297   -5.3136   32.1454 N.pl3   1  UNL1       -0.3108
     26 H           6.3262   -5.9851   32.7983 H       1  UNL1        0.1523
     27 C           7.2897   -5.7510   30.8713 C.ar    1  UNL1        0.0763
     28 C           6.6831   -5.3862   29.5489 C.ar    1  UNL1        0.0192
     29 C           7.3431   -5.8236   28.2749 C.ar    1  UNL1        0.0311
     30 C           8.6095   -6.6259   28.3234 C.ar    1  UNL1        0.1425
     31 F           9.2695   -7.0633   27.0493 F       1  UNL1       -0.2041
     32 C           9.2161   -6.9908   29.6458 C.ar    1  UNL1        0.0605
     33 C           8.5561   -6.5533   30.9198 C.ar    1  UNL1        0.1556
     34 F           9.1627   -6.9182   32.2424 F       1  UNL1       -0.2028
@<TRIPOS>BOND
     1     9    10    1
     2    10     3    1
     3     3     4   ar
     4     4     5   ar
     5     5     6   ar
     6     6    11    1
     7    11    12    3
     8    12    13    1
     9    13    14    1
    10    13    15    1
    11    13    16    1
    12     6     7   ar
    13     7     8   ar
    14     8     1    1
    15     1     2    2
    16     1    19    1
    17    19    20   ar
    18    20    21   ar
    19    21    22   ar
    20    22    25    1
    21    25    27    1
    22    27    28   ar
    23    28    29   ar
    24    29    30   ar
    25    30    31    1
    26    30    32   ar
    27    32    33   ar
    28    33    34    1
    29    22    23   ar
    30    23    24   ar
    31     8     3   ar
    32    24    19   ar
    33    33    27   ar
    34    16    17    1
    35    16    18    1
    36    25    26    1
@<TRIPOS>MOLECULE
*****
 34 36 0 0 0
SMALL
GASTEIGER

@<TRIPOS>ATOM
      1 C           1.6694    2.8650   23.4300 C.2     1  UNL1        0.1985
      2 O           2.4041    4.1469   23.1714 O.2     1  UNL1       -0.2865
      3 C           0.1565    2.2047   21.4237 C.ar    1  UNL1        0.1418
      4 C          -0.1624    1.2803   20.2862 C.ar    1  UNL1        0.0376
      5 C           0.7127    0.0920   20.0175 C.ar    1  UNL1        0.0114
      6 C           1.9066   -0.1720   20.8863 C.ar    1  UNL1        0.0420
      7 C           2.2255    0.7523   22.0238 C.ar    1  UNL1        0.0145
      8 C           1.3504    1.9407   22.2925 C.ar    1  UNL1        0.0735
      9 C          -2.1429    3.3971   21.2223 C.3     1  UNL1        0.2525
     10 O          -0.7185    3.3930   21.6924 O.3     1  UNL1       -0.4713
     11 C           2.7816   -1.3603   20.6176 C.1     1  UNL1       -0.0632
     12 C           3.6567   -2.5486   20.3489 C.1     1  UNL1       -0.0737
     13 C           4.5317   -3.7369   20.0802 C.3     1  UNL1        0.0941
     14 C           3.4704   -4.3180   19.1937 C.3     1  UNL1        0.0290
     15 C           5.5931   -3.1558   20.9667 C.3     1  UNL1        0.0290
     16 N           5.4068   -4.9253   19.8115 N.3     1  UNL1       -0.3139
     17 H           4.9247   -5.5672   19.1823 H       1  UNL1        0.1196
     18 H           5.6132   -5.4010   20.6898 H       1  UNL1        0.1196
     19 C           1.2535    2.5074   24.8262 C.ar    1  UNL1        0.0391
     20 C           0.0059    1.7067   25.0552 C.ar    1  UNL1        0.0045
     21 C          -0.4100    1.3492   26.4514 C.ar    1  UNL1        0.0147
     22 C           0.4217    1.7923   27.6184 C.ar    1  UNL1        0.0484
     23 C           1.6693    2.5929   27.3893 C.ar    1  UNL1        0.0147
     24 C           2.0852    2.9505   25.9932 C.ar    1  UNL1        0.0045
     25 N           0.0059    1.4347   29.0145 N.pl3   1  UNL1       -0.3108
     26 H          -0.9461    1.4540   29.2648 H       1  UNL1        0.1523
     27 C           1.0405    1.0478   30.0294 C.ar    1  UNL1        0.0763
     28 C           1.2092    1.8635   31.2769 C.ar    1  UNL1        0.0192
     29 C           2.2438    1.4766   32.2917 C.ar    1  UNL1        0.0311
     30 C           3.1096    0.2740   32.0591 C.ar    1  UNL1        0.1425
     31 F           4.1443   -0.1129   33.0740 F       1  UNL1       -0.2041
     32 C           2.9409   -0.5417   30.8116 C.ar    1  UNL1        0.0605
     33 C           1.9063   -0.1547   29.7968 C.ar    1  UNL1        0.1556
     34 F           1.7376   -0.9704   28.5493 F       1  UNL1       -0.2028
@<TRIPOS>BOND
     1     9    10    1
     2    10     3    1
     3     3     4   ar
     4     4     5   ar
     5     5     6   ar
     6     6    11    1
     7    11    12    3
     8    12    13    1
     9    13    14    1
    10    13    15    1
    11    13    16    1
    12     6     7   ar
    13     7     8   ar
    14     8     1    1
    15     1     2    2
    16     1    19    1
    17    19    20   ar
    18    20    21   ar
    19    21    22   ar
    20    22    25    1
    21    25    27    1
    22    27    28   ar
    23    28    29   ar
    24    29    30   ar
    25    30    31    1
    26    30    32   ar
    27    32    33   ar
    28    33    34    1
    29    22    23   ar
    30    23    24   ar
    31     8     3   ar
    32    24    19   ar
    33    33    27   ar
    34    16    17    1
    35    16    18    1
    36    25    26    1
@<TRIPOS>MOLECULE
*****
 34 36 0 0 0
SMALL
GASTEIGER

@<TRIPOS>ATOM
      1 C          -0.4999    2.2858   21.0568 C.2     1  UNL1        0.1985
      2 O          -1.8753    2.4776   20.4900 O.2     1  UNL1       -0.2865
      3 C           0.1192    4.4149   22.4110 C.ar    1  UNL1        0.1418
      4 C           0.4924    5.0652   23.7101 C.ar    1  UNL1        0.0376
      5 C           0.6197    4.2369   24.9542 C.ar    1  UNL1        0.0114
      6 C           0.3739    2.7583   24.8991 C.ar    1  UNL1        0.0420
      7 C           0.0007    2.1079   23.6001 C.ar    1  UNL1        0.0145
      8 C          -0.1267    2.9362   22.3560 C.ar    1  UNL1        0.0735
      9 C          -1.2744    6.0004   20.8964 C.3     1  UNL1        0.2525
     10 O          -0.0082    5.2432   21.1669 O.3     1  UNL1       -0.4713
     11 C           0.5012    1.9300   26.1432 C.1     1  UNL1       -0.0632
     12 C           0.6285    1.1017   27.3873 C.1     1  UNL1       -0.0737
     13 C           0.7559    0.2734   28.6314 C.3     1  UNL1        0.0941
     14 C          -0.7098   -0.0400   28.5727 C.3     1  UNL1        0.0290
     15 C           2.2216    0.5869   28.6900 C.3     1  UNL1        0.0290
     16 N           0.8832   -0.5549   29.8754 N.3     1  UNL1       -0.3139
     17 H          -0.0276   -0.9436   30.1198 H       1  UNL1        0.1196
     18 H           1.2196    0.0300   30.6404 H       1  UNL1        0.1196
     19 C           0.5024    1.4435   20.3246 C.ar    1  UNL1        0.0391
     20 C           0.6380   -0.0143   20.6508 C.ar    1  UNL1        0.0045
     21 C           1.6403   -0.8565   19.9186 C.ar    1  UNL1        0.0147
     22 C           2.5069   -0.2409   18.8602 C.ar    1  UNL1        0.0484
     23 C           2.3712    1.2169   18.5341 C.ar    1  UNL1        0.0147
     24 C           1.3690    2.0591   19.2663 C.ar    1  UNL1        0.0045
     25 N           3.5092   -1.0831   18.1280 N.pl3   1  UNL1       -0.3108
     26 H           3.4999   -1.1155   17.1441 H       1  UNL1        0.1523
     27 C           4.5256   -1.8761   18.8950 C.ar    1  UNL1        0.0763
     28 C           5.8099   -1.2319   19.3258 C.ar    1  UNL1        0.0192
     29 C           6.8262   -2.0249   20.0927 C.ar    1  UNL1        0.0311
     30 C           6.5583   -3.4620   20.4288 C.ar    1  UNL1        0.1425
     31 F           7.5747   -4.2549   21.1958 F       1  UNL1       -0.2041
     32 C           5.2740   -4.1061   19.9980 C.ar    1  UNL1        0.0605
     33 C           4.2577   -3.3132   19.2311 C.ar    1  UNL1        0.1556
     34 F           2.9733   -3.9573   18.8002 F       1  UNL1       -0.2028
@<TRIPOS>BOND
     1     9    10    1
     2    10     3    1
     3     3     4   ar
     4     4     5   ar
     5     5     6   ar
     6     6    11    1
     7    11    12    3
     8    12    13    1
     9    13    14    1
    10    13    15    1
    11    13    16    1
    12     6     7   ar
    13     7     8   ar
    14     8     1    1
    15     1     2    2
    16     1    19    1
    17    19    20   ar
    18    20    21   ar
    19    21    22   ar
    20    22    25    1
    21    25    27    1
    22    27    28   ar
    23    28    29   ar
    24    29    30   ar
    25    30    31    1
    26    30    32   ar
    27    32    33   ar
    28    33    34    1
    29    22    23   ar
    30    23    24   ar
    31     8     3   ar
    32    24    19   ar
    33    33    27   ar
    34    16    17    1
    35    16    18    1
    36    25    26    1
@<TRIPOS>MOLECULE
*****
 34 36 0 0 0
SMALL
GASTEIGER

@<TRIPOS>ATOM
      1 C          -9.9244  -19.1749   21.0802 C.2     1  UNL1        0.1985
      2 O         -10.9801  -20.0747   20.5095 O.2     1  UNL1       -0.2865
      3 C         -11.5391  -17.1731   21.4483 C.ar    1  UNL1        0.1418
      4 C         -11.9340  -15.9470   22.2168 C.ar    1  UNL1        0.0376
      5 C         -11.1091  -15.4965   23.3858 C.ar    1  UNL1        0.0114
      6 C          -9.8892  -16.2721   23.7863 C.ar    1  UNL1        0.0420
      7 C          -9.4944  -17.4982   23.0177 C.ar    1  UNL1        0.0145
      8 C         -10.3193  -17.9487   21.8487 C.ar    1  UNL1        0.0735
      9 C         -12.1448  -17.0130   18.9269 C.3     1  UNL1        0.2525
     10 O         -12.3641  -17.6236   20.2793 O.3     1  UNL1       -0.4713
     11 C          -9.0643  -15.8216   24.9552 C.1     1  UNL1       -0.0632
     12 C          -8.2393  -15.3711   26.1242 C.1     1  UNL1       -0.0737
     13 C          -7.4144  -14.9206   27.2932 C.3     1  UNL1        0.0941
     14 C          -8.6663  -14.5730   28.0427 C.3     1  UNL1        0.0290
     15 C          -6.1625  -15.2683   26.5437 C.3     1  UNL1        0.0290
     16 N          -6.5894  -14.4702   28.4622 N.3     1  UNL1       -0.3139
     17 H          -7.2051  -14.1452   29.2077 H       1  UNL1        0.1196
     18 H          -5.9757  -13.7089   28.1720 H       1  UNL1        0.1196
     19 C          -8.4737  -19.5011   20.8823 C.ar    1  UNL1        0.0391
     20 C          -7.8321  -19.2846   19.5439 C.ar    1  UNL1        0.0045
     21 C          -6.3814  -19.6108   19.3460 C.ar    1  UNL1        0.0147
     22 C          -5.5724  -20.1536   20.4866 C.ar    1  UNL1        0.0484
     23 C          -6.2141  -20.3701   21.8250 C.ar    1  UNL1        0.0147
     24 C          -7.6647  -20.0439   22.0229 C.ar    1  UNL1        0.0045
     25 N          -4.1217  -20.4798   20.2888 N.pl3   1  UNL1       -0.3108
     26 H          -3.8400  -21.4150   20.1648 H       1  UNL1        0.1523
     27 C          -3.1004  -19.3812   20.2798 C.ar    1  UNL1        0.0763
     28 C          -2.4720  -18.9520   18.9873 C.ar    1  UNL1        0.0192
     29 C          -1.4507  -17.8534   18.9784 C.ar    1  UNL1        0.0311
     30 C          -1.0578  -17.1842   20.2620 C.ar    1  UNL1        0.1425
     31 F          -0.0365  -16.0856   20.2531 F       1  UNL1       -0.2041
     32 C          -1.6862  -17.6134   21.5546 C.ar    1  UNL1        0.0605
     33 C          -2.7075  -18.7120   21.5635 C.ar    1  UNL1        0.1556
     34 F          -3.3360  -19.1413   22.8561 F       1  UNL1       -0.2028
@<TRIPOS>BOND
     1     9    10    1
     2    10     3    1
     3     3     4   ar
     4     4     5   ar
     5     5     6   ar
     6     6    11    1
     7    11    12    3
     8    12    13    1
     9    13    14    1
    10    13    15    1
    11    13    16    1
    12     6     7   ar
    13     7     8   ar
    14     8     1    1
    15     1     2    2
    16     1    19    1
    17    19    20   ar
    18    20    21   ar
    19    21    22   ar
    20    22    25    1
    21    25    27    1
    22    27    28   ar
    23    28    29   ar
    24    29    30   ar
    25    30    31    1
    26    30    32   ar
    27    32    33   ar
    28    33    34    1
    29    22    23   ar
    30    23    24   ar
    31     8     3   ar
    32    24    19   ar
    33    33    27   ar
    34    16    17    1
    35    16    18    1
    36    25    26    1
