@<TRIPOS>MOLECULE
*****
 31 34 0 0 0
SMALL
GASTEIGER

@<TRIPOS>ATOM
      1 N         -13.0550   -3.4758   19.3979 N.pl3   1  UNL1       -0.2567
      2 C         -13.7140   -2.1491   19.1617 C.ar    1  UNL1        0.1408
      3 N         -14.9262   -1.9774   20.0284 N.ar    1  UNL1       -0.2290
      4 C         -15.7333   -0.7157   19.9474 C.ar    1  UNL1        0.0969
      5 C         -15.3283    0.3743   18.9998 C.ar    1  UNL1        0.0084
      6 C         -14.1161    0.2025   18.1332 C.ar    1  UNL1        0.0055
      7 C         -13.3090   -1.0592   18.2142 C.ar    1  UNL1        0.0853
      8 C         -12.1449   -1.0267   17.2687 C.2     1  UNL1        0.2523
      9 O         -12.0095    0.2201   16.4458 O.2     1  UNL1       -0.2697
     10 N         -11.0983   -2.0760   17.0372 N.am    1  UNL1       -0.2784
     11 C         -10.9574   -3.4171   17.6942 C.ar    1  UNL1        0.0791
     12 C          -9.7645   -4.1610   17.1710 C.ar    1  UNL1       -0.0018
     13 C          -8.8938   -3.5381   16.1205 C.3     1  UNL1        0.0326
     14 C          -9.4424   -5.5278   17.6985 C.ar    1  UNL1        0.0467
     15 C         -10.3132   -6.1507   18.7490 C.ar    1  UNL1        0.2232
     16 F          -9.9911   -7.5175   19.2764 F       1  UNL1       -0.1832
     17 N         -11.5060   -5.4069   19.2722 N.ar    1  UNL1       -0.2014
     18 C         -11.8282   -4.0401   18.7448 C.ar    1  UNL1        0.1521
     19 H         -10.4134   -1.8554   16.3654 H       1  UNL1        0.1552
     20 C         -14.7660   -5.3339   20.0059 C.3     1  UNL1        0.0237
     21 C         -13.7093   -4.3542   20.4226 C.3     1  UNL1        0.0984
     22 C         -16.1355    1.6360   18.9189 C.3     1  UNL1        0.0899
     23 S         -15.5907    2.9127   19.4875 S.3     1  UNL1       -0.1087
     24 C         -15.9096    3.3005   20.9010 C.ar    1  UNL1        0.0279
     25 C         -17.0197    2.6095   21.6360 C.ar    1  UNL1        0.0209
     26 C         -17.3385    2.9973   23.0495 C.ar    1  UNL1        0.0595
     27 C         -18.4486    2.3064   23.7846 C.3     1  UNL1        0.0521
     28 N         -16.5473    4.0761   23.7279 N.ar    1  UNL1       -0.2539
     29 C         -15.4372    4.7670   22.9929 C.ar    1  UNL1        0.0595
     30 C         -14.6460    5.8458   23.6713 C.3     1  UNL1        0.0521
     31 C         -15.1184    4.3792   21.5794 C.ar    1  UNL1        0.0209
@<TRIPOS>BOND
     1    20    21    1
     2    21     1    1
     3     1     2    1
     4     2     3   ar
     5     3     4   ar
     6     4     5   ar
     7     5    22    1
     8    22    23    1
     9    23    24    1
    10    24    25   ar
    11    25    26   ar
    12    26    27    1
    13    26    28   ar
    14    28    29   ar
    15    29    30    1
    16    29    31   ar
    17     5     6   ar
    18     6     7   ar
    19     7     8    1
    20     8     9    2
    21     8    10   am
    22    10    11    1
    23    11    12   ar
    24    12    13    1
    25    12    14   ar
    26    14    15   ar
    27    15    16    1
    28    15    17   ar
    29    17    18   ar
    30    18     1    1
    31     7     2   ar
    32    18    11   ar
    33    31    24   ar
    34    10    19    1
@<TRIPOS>MOLECULE
*****
 31 34 0 0 0
SMALL
GASTEIGER

@<TRIPOS>ATOM
      1 N          -5.6755  -16.5302   23.3835 N.pl3   1  UNL1       -0.2567
      2 C          -7.0360  -17.1283   23.5866 C.ar    1  UNL1        0.1408
      3 N          -7.8958  -16.2538   24.4503 N.ar    1  UNL1       -0.2290
      4 C          -9.2991  -16.6702   24.7774 C.ar    1  UNL1        0.0969
      5 C          -9.8428  -17.9612   24.2409 C.ar    1  UNL1        0.0084
      6 C          -8.9830  -18.8357   23.3772 C.ar    1  UNL1        0.0055
      7 C          -7.5797  -18.4193   23.0500 C.ar    1  UNL1        0.0853
      8 C          -6.8970  -19.4309   22.1779 C.2     1  UNL1        0.2523
      9 O          -7.7178  -20.6307   21.8078 O.2     1  UNL1       -0.2697
     10 N          -5.5022  -19.4016   21.6270 N.am    1  UNL1       -0.2784
     11 C          -4.4454  -18.3532   21.8121 C.ar    1  UNL1        0.0791
     12 C          -3.1831  -18.7134   21.0864 C.ar    1  UNL1       -0.0018
     13 C          -3.1059  -19.9912   20.3047 C.3     1  UNL1        0.0326
     14 C          -1.9978  -17.7957   21.1424 C.ar    1  UNL1        0.0467
     15 C          -2.0749  -16.5179   21.9241 C.ar    1  UNL1        0.2232
     16 F          -0.8898  -15.6002   21.9801 F       1  UNL1       -0.1832
     17 N          -3.3373  -16.1577   22.6498 N.ar    1  UNL1       -0.2014
     18 C          -4.5225  -17.0753   22.5938 C.ar    1  UNL1        0.1521
     19 H          -5.2464  -20.1723   21.0703 H       1  UNL1        0.1552
     20 C          -5.1349  -15.1673   25.5284 C.3     1  UNL1        0.0237
     21 C          -5.4362  -15.2128   24.0596 C.3     1  UNL1        0.0984
     22 C         -11.2462  -18.3776   24.5681 C.3     1  UNL1        0.0899
     23 S         -12.2674  -18.4961   23.4757 S.3     1  UNL1       -0.1087
     24 C         -11.8666  -18.2753   22.0472 C.ar    1  UNL1        0.0279
     25 C         -11.1332  -19.3491   21.2995 C.ar    1  UNL1        0.0209
     26 C         -10.7324  -19.1283   19.8710 C.ar    1  UNL1        0.0595
     27 C          -9.9990  -20.2020   19.1232 C.3     1  UNL1        0.0521
     28 N         -11.0650  -17.8337   19.1902 N.ar    1  UNL1       -0.2539
     29 C         -11.7984  -16.7599   19.9379 C.ar    1  UNL1        0.0595
     30 C         -12.1311  -15.4654   19.2572 C.3     1  UNL1        0.0521
     31 C         -12.1992  -16.9807   21.3664 C.ar    1  UNL1        0.0209
@<TRIPOS>BOND
     1    20    21    1
     2    21     1    1
     3     1     2    1
     4     2     3   ar
     5     3     4   ar
     6     4     5   ar
     7     5    22    1
     8    22    23    1
     9    23    24    1
    10    24    25   ar
    11    25    26   ar
    12    26    27    1
    13    26    28   ar
    14    28    29   ar
    15    29    30    1
    16    29    31   ar
    17     5     6   ar
    18     6     7   ar
    19     7     8    1
    20     8     9    2
    21     8    10   am
    22    10    11    1
    23    11    12   ar
    24    12    13    1
    25    12    14   ar
    26    14    15   ar
    27    15    16    1
    28    15    17   ar
    29    17    18   ar
    30    18     1    1
    31     7     2   ar
    32    18    11   ar
    33    31    24   ar
    34    10    19    1
@<TRIPOS>MOLECULE
*****
 31 34 0 0 0
SMALL
GASTEIGER

@<TRIPOS>ATOM
      1 N           7.2420   -3.7521   26.9979 N.pl3   1  UNL1       -0.2567
      2 C           6.9348   -3.2908   28.3918 C.ar    1  UNL1        0.1408
      3 N           6.6980   -1.8104   28.4394 N.ar    1  UNL1       -0.2290
      4 C           6.3743   -1.1443   29.7438 C.ar    1  UNL1        0.0969
      5 C           6.2875   -1.9585   31.0006 C.ar    1  UNL1        0.0084
      6 C           6.5243   -3.4389   30.9529 C.ar    1  UNL1        0.0055
      7 C           6.8480   -4.1050   29.6485 C.ar    1  UNL1        0.0853
      8 C           7.0469   -5.5817   29.8217 C.2     1  UNL1        0.2523
      9 O           6.8902   -6.0998   31.2207 O.2     1  UNL1       -0.2697
     10 N           7.3817   -6.6088   28.7811 N.am    1  UNL1       -0.2784
     11 C           7.6003   -6.4129   27.3101 C.ar    1  UNL1        0.0791
     12 C           7.9166   -7.7096   26.6256 C.ar    1  UNL1       -0.0018
     13 C           7.9787   -8.9809   27.4192 C.3     1  UNL1        0.0326
     14 C           8.1706   -7.7349   25.1474 C.ar    1  UNL1        0.0467
     15 C           8.1085   -6.4636   24.3539 C.ar    1  UNL1        0.2232
     16 F           8.3625   -6.4889   22.8758 F       1  UNL1       -0.1832
     17 N           7.7922   -5.1669   25.0384 N.ar    1  UNL1       -0.2014
     18 C           7.5382   -5.1415   26.5164 C.ar    1  UNL1        0.1521
     19 H           7.4696   -7.5338   29.1066 H       1  UNL1        0.1552
     20 C           5.9886   -2.3234   25.2264 C.3     1  UNL1        0.0237
     21 C           7.2546   -2.6824   25.9464 C.3     1  UNL1        0.0984
     22 C           5.9638   -1.2923   32.3050 C.3     1  UNL1        0.0899
     23 S           4.5625   -1.3295   32.8387 S.3     1  UNL1       -0.1087
     24 C           3.5118   -0.4353   32.2500 C.ar    1  UNL1        0.0279
     25 C           3.0728    0.7938   32.9894 C.ar    1  UNL1        0.0209
     26 C           2.0221    1.6879   32.4007 C.ar    1  UNL1        0.0595
     27 C           1.5831    2.9170   33.1400 C.3     1  UNL1        0.0521
     28 N           1.4104    1.3529   31.0727 N.ar    1  UNL1       -0.2539
     29 C           1.8493    0.1239   30.3334 C.ar    1  UNL1        0.0595
     30 C           1.2376   -0.2111   29.0054 C.3     1  UNL1        0.0521
     31 C           2.9000   -0.7702   30.9220 C.ar    1  UNL1        0.0209
@<TRIPOS>BOND
     1    20    21    1
     2    21     1    1
     3     1     2    1
     4     2     3   ar
     5     3     4   ar
     6     4     5   ar
     7     5    22    1
     8    22    23    1
     9    23    24    1
    10    24    25   ar
    11    25    26   ar
    12    26    27    1
    13    26    28   ar
    14    28    29   ar
    15    29    30    1
    16    29    31   ar
    17     5     6   ar
    18     6     7   ar
    19     7     8    1
    20     8     9    2
    21     8    10   am
    22    10    11    1
    23    11    12   ar
    24    12    13    1
    25    12    14   ar
    26    14    15   ar
    27    15    16    1
    28    15    17   ar
    29    17    18   ar
    30    18     1    1
    31     7     2   ar
    32    18    11   ar
    33    31    24   ar
    34    10    19    1
@<TRIPOS>MOLECULE
*****
 31 34 0 0 0
SMALL
GASTEIGER

@<TRIPOS>ATOM
      1 N           2.5077   -0.6697   20.8951 N.pl3   1  UNL1       -0.2567
      2 C           1.9556    0.1308   22.0373 C.ar    1  UNL1        0.1408
      3 N           0.9112    1.1016   21.5719 N.ar    1  UNL1       -0.2290
      4 C           0.2304    2.0016   22.5600 C.ar    1  UNL1        0.0969
      5 C           0.5942    1.9309   24.0136 C.ar    1  UNL1        0.0084
      6 C           1.6386    0.9601   24.4789 C.ar    1  UNL1        0.0055
      7 C           2.3194    0.0601   23.4908 C.ar    1  UNL1        0.0853
      8 C           3.3249   -0.8286   24.1610 C.2     1  UNL1        0.2523
      9 O           3.4579   -0.6572   25.6453 O.2     1  UNL1       -0.2697
     10 N           4.2151   -1.8659   23.5434 N.am    1  UNL1       -0.2784
     11 C           4.3196   -2.2708   22.1029 C.ar    1  UNL1        0.0791
     12 C           5.3400   -3.3533   21.9105 C.ar    1  UNL1       -0.0018
     13 C           6.0999   -3.8856   23.0891 C.3     1  UNL1        0.0326
     14 C           5.6006   -3.9033   20.5395 C.ar    1  UNL1        0.0467
     15 C           4.8408   -3.3709   19.3609 C.ar    1  UNL1        0.2232
     16 F           5.1013   -3.9209   17.9899 F       1  UNL1       -0.1832
     17 N           3.8203   -2.2885   19.5533 N.ar    1  UNL1       -0.2014
     18 C           3.5597   -1.7385   20.9242 C.ar    1  UNL1        0.1521
     19 H           4.8094   -2.3442   24.1658 H       1  UNL1        0.1552
     20 C           2.5834    0.6680   18.6691 C.3     1  UNL1        0.0237
     21 C           1.9314   -0.3603   19.5452 C.3     1  UNL1        0.0984
     22 C          -0.0866    2.8310   25.0017 C.3     1  UNL1        0.0899
     23 S           0.6279    3.2477   26.2530 S.3     1  UNL1       -0.1087
     24 C           0.3492    2.5412   27.5465 C.ar    1  UNL1        0.0279
     25 C          -0.4435    1.2678   27.5499 C.ar    1  UNL1        0.0209
     26 C          -0.7222    0.5613   28.8435 C.ar    1  UNL1        0.0595
     27 C          -1.5149   -0.7121   28.8469 C.3     1  UNL1        0.0521
     28 N          -0.2081    1.1283   30.1336 N.ar    1  UNL1       -0.2539
     29 C           0.5846    2.4016   30.1301 C.ar    1  UNL1        0.0595
     30 C           1.0986    2.9686   31.4202 C.3     1  UNL1        0.0521
     31 C           0.8632    3.1081   28.8366 C.ar    1  UNL1        0.0209
@<TRIPOS>BOND
     1    20    21    1
     2    21     1    1
     3     1     2    1
     4     2     3   ar
     5     3     4   ar
     6     4     5   ar
     7     5    22    1
     8    22    23    1
     9    23    24    1
    10    24    25   ar
    11    25    26   ar
    12    26    27    1
    13    26    28   ar
    14    28    29   ar
    15    29    30    1
    16    29    31   ar
    17     5     6   ar
    18     6     7   ar
    19     7     8    1
    20     8     9    2
    21     8    10   am
    22    10    11    1
    23    11    12   ar
    24    12    13    1
    25    12    14   ar
    26    14    15   ar
    27    15    16    1
    28    15    17   ar
    29    17    18   ar
    30    18     1    1
    31     7     2   ar
    32    18    11   ar
    33    31    24   ar
    34    10    19    1
@<TRIPOS>MOLECULE
*****
 31 34 0 0 0
SMALL
GASTEIGER

@<TRIPOS>ATOM
      1 N           5.3031   -3.1127   23.3979 N.pl3   1  UNL1       -0.2567
      2 C           5.1160   -2.2738   24.6272 C.ar    1  UNL1        0.1408
      3 N           6.0102   -2.7285   25.7424 N.ar    1  UNL1       -0.2290
      4 C           5.9792   -2.0209   27.0645 C.ar    1  UNL1        0.0969
      5 C           5.0540   -0.8585   27.2716 C.ar    1  UNL1        0.0084
      6 C           4.1598   -0.4037   26.1564 C.ar    1  UNL1        0.0055
      7 C           4.1908   -1.1114   24.8342 C.ar    1  UNL1        0.0853
      8 C           3.2243   -0.5008   23.8630 C.2     1  UNL1        0.2523
      9 O           2.4333    0.6649   24.3780 O.2     1  UNL1       -0.2697
     10 N           2.9443   -0.9018   22.4450 N.am    1  UNL1       -0.2784
     11 C           3.5616   -2.0125   21.6479 C.ar    1  UNL1        0.0791
     12 C           2.9955   -2.0713   20.2601 C.ar    1  UNL1       -0.0018
     13 C           1.9458   -1.0874   19.8361 C.3     1  UNL1        0.0326
     14 C           3.4792   -3.1140   19.2963 C.ar    1  UNL1        0.0467
     15 C           4.5290   -4.0979   19.7204 C.ar    1  UNL1        0.2232
     16 F           5.0127   -5.1406   18.7567 F       1  UNL1       -0.1832
     17 N           5.0951   -4.0391   21.1082 N.ar    1  UNL1       -0.2014
     18 C           4.6114   -2.9965   22.0720 C.ar    1  UNL1        0.1521
     19 H           2.2656   -0.3651   21.9754 H       1  UNL1        0.1552
     20 C           7.7279   -3.9819   23.0587 C.3     1  UNL1        0.0237
     21 C           6.3160   -4.2135   23.5092 C.3     1  UNL1        0.0984
     22 C           5.0230   -0.1508   28.5938 C.3     1  UNL1        0.0899
     23 S           4.1238   -0.6448   29.6880 S.3     1  UNL1       -0.1087
     24 C           2.7881    0.0007   29.9099 C.ar    1  UNL1        0.0279
     25 C           1.6103   -0.4067   29.0752 C.ar    1  UNL1        0.0209
     26 C           0.2746    0.2388   29.2971 C.ar    1  UNL1        0.0595
     27 C          -0.9033   -0.1686   28.4624 C.3     1  UNL1        0.0521
     28 N           0.1167    1.2916   30.3538 N.ar    1  UNL1       -0.2539
     29 C           1.2945    1.6990   31.1885 C.ar    1  UNL1        0.0595
     30 C           1.1366    2.7519   32.2452 C.3     1  UNL1        0.0521
     31 C           2.6302    1.0535   30.9666 C.ar    1  UNL1        0.0209
@<TRIPOS>BOND
     1    20    21    1
     2    21     1    1
     3     1     2    1
     4     2     3   ar
     5     3     4   ar
     6     4     5   ar
     7     5    22    1
     8    22    23    1
     9    23    24    1
    10    24    25   ar
    11    25    26   ar
    12    26    27    1
    13    26    28   ar
    14    28    29   ar
    15    29    30    1
    16    29    31   ar
    17     5     6   ar
    18     6     7   ar
    19     7     8    1
    20     8     9    2
    21     8    10   am
    22    10    11    1
    23    11    12   ar
    24    12    13    1
    25    12    14   ar
    26    14    15   ar
    27    15    16    1
    28    15    17   ar
    29    17    18   ar
    30    18     1    1
    31     7     2   ar
    32    18    11   ar
    33    31    24   ar
    34    10    19    1
@<TRIPOS>MOLECULE
*****
 31 34 0 0 0
SMALL
GASTEIGER

@<TRIPOS>ATOM
      1 N           4.1076   -2.1876   21.0074 N.pl3   1  UNL1       -0.2567
      2 C           4.8657   -2.7096   22.1919 C.ar    1  UNL1        0.1408
      3 N           5.8650   -3.7523   21.7868 N.ar    1  UNL1       -0.2290
      4 C           6.7302   -4.4048   22.8239 C.ar    1  UNL1        0.0969
      5 C           6.5962   -4.0145   24.2660 C.ar    1  UNL1        0.0084
      6 C           5.5970   -2.9718   24.6710 C.ar    1  UNL1        0.0055
      7 C           4.7318   -2.3193   23.6340 C.ar    1  UNL1        0.0853
      8 C           3.8066   -1.3107   24.2478 C.2     1  UNL1        0.2523
      9 O           3.9155   -1.1480   25.7350 O.2     1  UNL1       -0.2697
     10 N           2.7869   -0.4432   23.5712 N.am    1  UNL1       -0.2784
     11 C           2.4405   -0.3702   22.1135 C.ar    1  UNL1        0.0791
     12 C           1.3571    0.6350   21.8574 C.ar    1  UNL1       -0.0018
     13 C           0.7693    1.4113   22.9984 C.3     1  UNL1        0.0326
     14 C           0.8613    0.8639   20.4603 C.ar    1  UNL1        0.0467
     15 C           1.4491    0.0876   19.3194 C.ar    1  UNL1        0.2232
     16 F           0.9534    0.3164   17.9222 F       1  UNL1       -0.1832
     17 N           2.5326   -0.9176   19.5755 N.ar    1  UNL1       -0.2014
     18 C           3.0283   -1.1465   20.9725 C.ar    1  UNL1        0.1521
     19 H           2.2776    0.1576   24.1619 H       1  UNL1        0.1552
     20 C           3.7553   -4.0007   19.1802 C.3     1  UNL1        0.0237
     21 C           4.4778   -2.7859   19.6827 C.3     1  UNL1        0.0984
     22 C           7.4616   -4.6671   25.3031 C.3     1  UNL1        0.0899
     23 S           6.8337   -5.4278   26.4331 S.3     1  UNL1       -0.1087
     24 C           6.7515   -4.8113   27.7981 C.ar    1  UNL1        0.0279
     25 C           6.4422   -3.3508   27.9440 C.ar    1  UNL1        0.0209
     26 C           6.3600   -2.7343   29.3089 C.ar    1  UNL1        0.0595
     27 C           6.0506   -1.2738   29.4549 C.3     1  UNL1        0.0521
     28 N           6.5871   -3.5783   30.5280 N.ar    1  UNL1       -0.2539
     29 C           6.8964   -5.0388   30.3821 C.ar    1  UNL1        0.0595
     30 C           7.1235   -5.8828   31.6012 C.3     1  UNL1        0.0521
     31 C           6.9786   -5.6553   29.0172 C.ar    1  UNL1        0.0209
@<TRIPOS>BOND
     1    20    21    1
     2    21     1    1
     3     1     2    1
     4     2     3   ar
     5     3     4   ar
     6     4     5   ar
     7     5    22    1
     8    22    23    1
     9    23    24    1
    10    24    25   ar
    11    25    26   ar
    12    26    27    1
    13    26    28   ar
    14    28    29   ar
    15    29    30    1
    16    29    31   ar
    17     5     6   ar
    18     6     7   ar
    19     7     8    1
    20     8     9    2
    21     8    10   am
    22    10    11    1
    23    11    12   ar
    24    12    13    1
    25    12    14   ar
    26    14    15   ar
    27    15    16    1
    28    15    17   ar
    29    17    18   ar
    30    18     1    1
    31     7     2   ar
    32    18    11   ar
    33    31    24   ar
    34    10    19    1
@<TRIPOS>MOLECULE
*****
 31 34 0 0 0
SMALL
GASTEIGER

@<TRIPOS>ATOM
      1 N           7.1264   -3.7823   27.1624 N.pl3   1  UNL1       -0.2567
      2 C           6.8335   -3.3575   28.5709 C.ar    1  UNL1        0.1408
      3 N           6.5438   -1.8880   28.6512 N.ar    1  UNL1       -0.2290
      4 C           6.2249   -1.2576   29.9744 C.ar    1  UNL1        0.0969
      5 C           6.1958   -2.0968   31.2174 C.ar    1  UNL1        0.0084
      6 C           6.4855   -3.5663   31.1371 C.ar    1  UNL1        0.0055
      7 C           6.8043   -4.1967   29.8139 C.ar    1  UNL1        0.0853
      8 C           7.0608   -5.6678   29.9553 C.2     1  UNL1        0.2523
      9 O           6.9542   -6.2162   31.3474 O.2     1  UNL1       -0.2697
     10 N           7.4099   -6.6632   28.8888 N.am    1  UNL1       -0.2784
     11 C           7.5886   -6.4331   27.4173 C.ar    1  UNL1        0.0791
     12 C           7.9368   -7.7048   26.7021 C.ar    1  UNL1       -0.0018
     13 C           8.0629   -8.9869   27.4704 C.3     1  UNL1        0.0326
     14 C           8.1588   -7.6944   25.2186 C.ar    1  UNL1        0.0467
     15 C           8.0326   -6.4124   24.4504 C.ar    1  UNL1        0.2232
     16 F           8.2546   -6.4019   22.9670 F       1  UNL1       -0.1832
     17 N           7.6844   -5.1406   25.1655 N.ar    1  UNL1       -0.2014
     18 C           7.4624   -5.1510   26.6490 C.ar    1  UNL1        0.1521
     19 H           7.5387   -7.5899   29.1950 H       1  UNL1        0.1552
     20 C           5.7882   -2.3865   25.4270 C.3     1  UNL1        0.0237
     21 C           7.0766   -2.6943   26.1310 C.3     1  UNL1        0.0984
     22 C           5.8769   -1.4664   32.5406 C.3     1  UNL1        0.0899
     23 S           4.4484   -1.2949   32.9649 S.3     1  UNL1       -0.1087
     24 C           4.0675   -0.1678   33.8785 C.ar    1  UNL1        0.0279
     25 C           4.5863   -0.1347   35.2855 C.ar    1  UNL1        0.0209
     26 C           4.2054    0.9924   36.1989 C.ar    1  UNL1        0.0595
     27 C           4.7242    1.0256   37.6060 C.3     1  UNL1        0.0521
     28 N           3.3055    2.0864   35.7054 N.ar    1  UNL1       -0.2539
     29 C           2.7867    2.0532   34.2985 C.ar    1  UNL1        0.0595
     30 C           1.8868    3.1472   33.8050 C.3     1  UNL1        0.0521
     31 C           3.1676    0.9262   33.3850 C.ar    1  UNL1        0.0209
@<TRIPOS>BOND
     1    20    21    1
     2    21     1    1
     3     1     2    1
     4     2     3   ar
     5     3     4   ar
     6     4     5   ar
     7     5    22    1
     8    22    23    1
     9    23    24    1
    10    24    25   ar
    11    25    26   ar
    12    26    27    1
    13    26    28   ar
    14    28    29   ar
    15    29    30    1
    16    29    31   ar
    17     5     6   ar
    18     6     7   ar
    19     7     8    1
    20     8     9    2
    21     8    10   am
    22    10    11    1
    23    11    12   ar
    24    12    13    1
    25    12    14   ar
    26    14    15   ar
    27    15    16    1
    28    15    17   ar
    29    17    18   ar
    30    18     1    1
    31     7     2   ar
    32    18    11   ar
    33    31    24   ar
    34    10    19    1
@<TRIPOS>MOLECULE
*****
 31 34 0 0 0
SMALL
GASTEIGER

@<TRIPOS>ATOM
      1 N           7.8962   -5.7389   27.2519 N.pl3   1  UNL1       -0.2567
      2 C           7.4346   -5.0048   26.0279 C.ar    1  UNL1        0.1408
      3 N           7.8810   -5.6957   24.7735 N.ar    1  UNL1       -0.2290
      4 C           7.5230   -5.1234   23.4341 C.ar    1  UNL1        0.0969
      5 C           6.7186   -3.8602   23.3489 C.ar    1  UNL1        0.0084
      6 C           6.2721   -3.1693   24.6032 C.ar    1  UNL1        0.0055
      7 C           6.6301   -3.7417   25.9427 C.ar    1  UNL1        0.0853
      8 C           6.0886   -2.9006   27.0605 C.2     1  UNL1        0.2523
      9 O           5.3157   -1.6843   26.6442 O.2     1  UNL1       -0.2697
     10 N           6.2178   -3.1149   28.5395 N.am    1  UNL1       -0.2784
     11 C           6.9205   -4.2233   29.2660 C.ar    1  UNL1        0.0791
     12 C           6.8094   -4.0607   30.7530 C.ar    1  UNL1       -0.0018
     13 C           6.0625   -2.8930   31.3260 C.3     1  UNL1        0.0326
     14 C           7.4453   -5.0659   31.6670 C.ar    1  UNL1        0.0467
     15 C           8.1922   -6.2336   31.0939 C.ar    1  UNL1        0.2232
     16 F           8.8281   -7.2388   32.0078 F       1  UNL1       -0.1832
     17 N           8.3033   -6.3962   29.6069 N.ar    1  UNL1       -0.2014
     18 C           7.6674   -5.3911   28.6929 C.ar    1  UNL1        0.1521
     19 H           5.7841   -2.4387   29.1086 H       1  UNL1        0.1552
     20 C           7.9916   -8.3021   26.8380 C.3     1  UNL1        0.0237
     21 C           8.6918   -6.9856   27.0016 C.3     1  UNL1        0.0984
     22 C           6.3606   -3.2879   22.0093 C.3     1  UNL1        0.0899
     23 S           5.0120   -3.5622   21.4127 S.3     1  UNL1       -0.1087
     24 C           4.2633   -2.4654   20.7152 C.ar    1  UNL1        0.0279
     25 C           3.3387   -1.5763   21.4927 C.ar    1  UNL1        0.0209
     26 C           2.5900   -0.4796   20.7952 C.ar    1  UNL1        0.0595
     27 C           1.6654    0.4096   21.5728 C.3     1  UNL1        0.0521
     28 N           2.7659   -0.2719   19.3201 N.ar    1  UNL1       -0.2539
     29 C           3.6905   -1.1609   18.5425 C.ar    1  UNL1        0.0595
     30 C           3.8665   -0.9533   17.0674 C.3     1  UNL1        0.0521
     31 C           4.4392   -2.2577   19.2401 C.ar    1  UNL1        0.0209
@<TRIPOS>BOND
     1    20    21    1
     2    21     1    1
     3     1     2    1
     4     2     3   ar
     5     3     4   ar
     6     4     5   ar
     7     5    22    1
     8    22    23    1
     9    23    24    1
    10    24    25   ar
    11    25    26   ar
    12    26    27    1
    13    26    28   ar
    14    28    29   ar
    15    29    30    1
    16    29    31   ar
    17     5     6   ar
    18     6     7   ar
    19     7     8    1
    20     8     9    2
    21     8    10   am
    22    10    11    1
    23    11    12   ar
    24    12    13    1
    25    12    14   ar
    26    14    15   ar
    27    15    16    1
    28    15    17   ar
    29    17    18   ar
    30    18     1    1
    31     7     2   ar
    32    18    11   ar
    33    31    24   ar
    34    10    19    1
@<TRIPOS>MOLECULE
*****
 31 34 0 0 0
SMALL
GASTEIGER

@<TRIPOS>ATOM
      1 N           4.1657   -1.3396   21.4667 N.pl3   1  UNL1       -0.2567
      2 C           3.9799   -1.1863   22.9472 C.ar    1  UNL1        0.1408
      3 N           4.9372   -2.0513   23.7122 N.ar    1  UNL1       -0.2290
      4 C           4.9175   -2.0471   25.2120 C.ar    1  UNL1        0.0969
      5 C           3.9405   -1.1779   25.9469 C.ar    1  UNL1        0.0084
      6 C           2.9832   -0.3130   25.1819 C.ar    1  UNL1        0.0055
      7 C           3.0029   -0.3171   23.6820 C.ar    1  UNL1        0.0853
      8 C           1.9704    0.6133   23.1178 C.2     1  UNL1        0.2523
      9 O           1.1384    1.3501   24.1252 O.2     1  UNL1       -0.2697
     10 N           1.6600    0.9045   21.6794 N.am    1  UNL1       -0.2784
     11 C           2.3054    0.3370   20.4500 C.ar    1  UNL1        0.0791
     12 C           1.6925    0.8976   19.2010 C.ar    1  UNL1       -0.0018
     13 C           0.5774    1.8962   19.2957 C.3     1  UNL1        0.0326
     14 C           2.1948    0.4594   17.8572 C.ar    1  UNL1        0.0467
     15 C           3.3099   -0.5393   17.7625 C.ar    1  UNL1        0.2232
     16 F           3.8123   -0.9776   16.4187 F       1  UNL1       -0.1832
     17 N           3.9228   -1.0999   19.0115 N.ar    1  UNL1       -0.2014
     18 C           3.4206   -0.6618   20.3553 C.ar    1  UNL1        0.1521
     19 H           0.9371    1.5539   21.5214 H       1  UNL1        0.1552
     20 C           4.9014   -3.7370   20.7872 C.3     1  UNL1        0.0237
     21 C           5.2387   -2.2976   21.0412 C.3     1  UNL1        0.0984
     22 C           3.9209   -1.1738   27.4468 C.3     1  UNL1        0.0899
     23 S           3.7863    0.1213   28.1915 S.3     1  UNL1       -0.1087
     24 C           2.4990    0.4581   28.8839 C.ar    1  UNL1        0.0279
     25 C           1.2235   -0.2088   28.4617 C.ar    1  UNL1        0.0209
     26 C          -0.0638    0.1280   29.1541 C.ar    1  UNL1        0.0595
     27 C          -1.3393   -0.5390   28.7319 C.3     1  UNL1        0.0521
     28 N          -0.0755    1.1317   30.2687 N.ar    1  UNL1       -0.2539
     29 C           1.1999    1.7986   30.6910 C.ar    1  UNL1        0.0595
     30 C           1.1882    2.8023   31.8056 C.3     1  UNL1        0.0521
     31 C           2.4872    1.4618   29.9986 C.ar    1  UNL1        0.0209
@<TRIPOS>BOND
     1    20    21    1
     2    21     1    1
     3     1     2    1
     4     2     3   ar
     5     3     4   ar
     6     4     5   ar
     7     5    22    1
     8    22    23    1
     9    23    24    1
    10    24    25   ar
    11    25    26   ar
    12    26    27    1
    13    26    28   ar
    14    28    29   ar
    15    29    30    1
    16    29    31   ar
    17     5     6   ar
    18     6     7   ar
    19     7     8    1
    20     8     9    2
    21     8    10   am
    22    10    11    1
    23    11    12   ar
    24    12    13    1
    25    12    14   ar
    26    14    15   ar
    27    15    16    1
    28    15    17   ar
    29    17    18   ar
    30    18     1    1
    31     7     2   ar
    32    18    11   ar
    33    31    24   ar
    34    10    19    1
