@<TRIPOS>MOLECULE
*****
 26 29 0 0 0
SMALL
GASTEIGER

@<TRIPOS>ATOM
      1 C          -6.3249  -18.5517   22.2783 C.3     1  UNL1        0.0469
      2 C          -4.8294  -18.6277   22.1900 C.ar    1  UNL1       -0.0124
      3 C          -4.1792  -19.7331   21.4120 C.ar    1  UNL1       -0.0035
      4 C          -2.6838  -19.8091   21.3237 C.ar    1  UNL1       -0.0003
      5 C          -1.8385  -18.7796   22.0134 C.ar    1  UNL1        0.0005
      6 C          -2.4886  -17.6742   22.7914 C.ar    1  UNL1        0.0062
      7 C          -3.9841  -17.5982   22.8797 C.ar    1  UNL1        0.0258
      8 S          -4.6343  -16.4928   23.6578 S.3     1  UNL1       -0.0875
      9 C          -6.1297  -16.4168   23.7461 C.ar    1  UNL1        0.0258
     10 C          -6.7799  -15.3114   24.5241 C.ar    1  UNL1        0.0062
     11 C          -8.2754  -15.2354   24.6124 C.ar    1  UNL1        0.0005
     12 C          -9.1207  -16.2648   23.9227 C.ar    1  UNL1       -0.0003
     13 C          -8.4705  -17.3702   23.1447 C.ar    1  UNL1       -0.0035
     14 C          -6.9750  -17.4462   23.0563 C.ar    1  UNL1       -0.0124
     15 C          -7.1702  -19.5811   21.5886 C.3     1  UNL1        0.0258
     16 C          -7.3711  -19.5141   20.1037 C.3     1  UNL1        0.0692
     17 N          -8.6078  -18.8777   19.5421 N.3     1  UNL1       -0.2972
     18 H          -8.8192  -18.0733   20.1326 H       1  UNL1        0.1233
     19 C          -9.8739  -19.6736   19.4251 C.3     1  UNL1        0.0733
     20 C         -11.1568  -19.1278   19.9784 C.3     1  UNL1        0.0434
     21 C         -11.7643  -18.8856   24.4306 C.ar    1  UNL1       -0.0000
     22 C         -10.8805  -19.9501   23.8510 C.ar    1  UNL1       -0.0003
     23 C         -10.6781  -20.0308   22.3669 C.ar    1  UNL1       -0.0042
     24 C         -11.3593  -19.0470   21.4625 C.ar    1  UNL1       -0.0208
     25 C         -12.2430  -17.9826   22.0420 C.ar    1  UNL1       -0.0042
     26 C         -12.4455  -17.9018   23.5261 C.ar    1  UNL1       -0.0003
@<TRIPOS>BOND
     1    21    22   ar
     2    22    23   ar
     3    23    24   ar
     4    24    20    1
     5    20    19    1
     6    19    17    1
     7    17    16    1
     8    16    15    1
     9    15     1    1
    10     1     2    1
    11     2     3   ar
    12     3     4   ar
    13     4     5   ar
    14     5     6   ar
    15     6     7   ar
    16     7     8    1
    17     8     9    1
    18     9    10   ar
    19    10    11   ar
    20    11    12   ar
    21    12    13   ar
    22    13    14   ar
    23    24    25   ar
    24    25    26   ar
    25    26    21   ar
    26    14     1    1
    27     7     2   ar
    28    14     9   ar
    29    17    18    1
@<TRIPOS>MOLECULE
*****
 26 29 0 0 0
SMALL
GASTEIGER

@<TRIPOS>ATOM
      1 C          -6.2929  -18.5491   22.3415 C.3     1  UNL1        0.0469
      2 C          -6.9622  -17.4412   23.0997 C.ar    1  UNL1       -0.0124
      3 C          -8.4585  -17.3922   23.1911 C.ar    1  UNL1       -0.0035
      4 C          -9.1277  -16.2844   23.9493 C.ar    1  UNL1       -0.0003
      5 C          -8.3005  -15.2256   24.6161 C.ar    1  UNL1        0.0005
      6 C          -6.8041  -15.2746   24.5247 C.ar    1  UNL1        0.0062
      7 C          -6.1350  -16.3824   23.7665 C.ar    1  UNL1        0.0258
      8 S          -4.6385  -16.4314   23.6751 S.3     1  UNL1       -0.0875
      9 C          -3.9693  -17.5393   22.9169 C.ar    1  UNL1        0.0258
     10 C          -2.4729  -17.5883   22.8255 C.ar    1  UNL1        0.0062
     11 C          -1.8037  -18.6961   22.0674 C.ar    1  UNL1        0.0005
     12 C          -2.6309  -19.7550   21.4006 C.ar    1  UNL1       -0.0003
     13 C          -4.1273  -19.7060   21.4920 C.ar    1  UNL1       -0.0035
     14 C          -4.7965  -18.5981   22.2502 C.ar    1  UNL1       -0.0124
     15 C          -7.1201  -19.6080   21.6747 C.3     1  UNL1        0.0258
     16 C          -7.3367  -19.5669   20.1911 C.3     1  UNL1        0.0692
     17 N          -8.5409  -18.8720   19.6279 N.3     1  UNL1       -0.2972
     18 H          -8.7601  -18.1031   20.2611 H       1  UNL1        0.1233
     19 C          -9.8152  -19.6341   19.4146 C.3     1  UNL1        0.0733
     20 C         -11.1101  -19.0933   19.9443 C.3     1  UNL1        0.0434
     21 C         -11.8042  -18.8641   24.3846 C.ar    1  UNL1       -0.0000
     22 C         -10.9113  -19.9285   23.8190 C.ar    1  UNL1       -0.0003
     23 C         -10.6800  -20.0049   22.3389 C.ar    1  UNL1       -0.0042
     24 C         -11.3415  -19.0169   21.4244 C.ar    1  UNL1       -0.0208
     25 C         -12.2343  -17.9525   21.9900 C.ar    1  UNL1       -0.0042
     26 C         -12.4657  -17.8761   23.4700 C.ar    1  UNL1       -0.0003
@<TRIPOS>BOND
     1    21    22   ar
     2    22    23   ar
     3    23    24   ar
     4    24    20    1
     5    20    19    1
     6    19    17    1
     7    17    16    1
     8    16    15    1
     9    15     1    1
    10     1     2    1
    11     2     3   ar
    12     3     4   ar
    13     4     5   ar
    14     5     6   ar
    15     6     7   ar
    16     7     8    1
    17     8     9    1
    18     9    10   ar
    19    10    11   ar
    20    11    12   ar
    21    12    13   ar
    22    13    14   ar
    23    24    25   ar
    24    25    26   ar
    25    26    21   ar
    26    14     1    1
    27     7     2   ar
    28    14     9   ar
    29    17    18    1
@<TRIPOS>MOLECULE
*****
 26 29 0 0 0
SMALL
GASTEIGER

@<TRIPOS>ATOM
      1 C          -7.8814  -17.8061   22.0869 C.3     1  UNL1        0.0469
      2 C          -7.2896  -16.9449   23.1632 C.ar    1  UNL1       -0.0124
      3 C          -5.8002  -16.8446   23.3093 C.ar    1  UNL1       -0.0035
      4 C          -5.2085  -15.9834   24.3855 C.ar    1  UNL1       -0.0003
      5 C          -6.1063  -15.2225   25.3155 C.ar    1  UNL1        0.0005
      6 C          -7.5957  -15.3228   25.1694 C.ar    1  UNL1        0.0062
      7 C          -8.1874  -16.1840   24.0932 C.ar    1  UNL1        0.0258
      8 S          -9.6770  -16.2843   23.9470 S.3     1  UNL1       -0.0875
      9 C         -10.2686  -17.1455   22.8709 C.ar    1  UNL1        0.0258
     10 C         -11.7582  -17.2458   22.7247 C.ar    1  UNL1        0.0062
     11 C         -12.3498  -18.1070   21.6485 C.ar    1  UNL1        0.0005
     12 C         -11.4521  -18.8679   20.7185 C.ar    1  UNL1       -0.0003
     13 C          -9.9626  -18.7677   20.8646 C.ar    1  UNL1       -0.0035
     14 C          -9.3708  -17.9064   21.9408 C.ar    1  UNL1       -0.0124
     15 C          -6.9836  -18.5670   21.1569 C.3     1  UNL1        0.0258
     16 C          -6.6685  -20.0079   21.4302 C.3     1  UNL1        0.0692
     17 N          -6.0922  -20.8685   20.3452 N.3     1  UNL1       -0.2972
     18 H          -6.4664  -21.8072   20.4840 H       1  UNL1        0.1233
     19 C          -4.6050  -21.0105   20.2110 C.3     1  UNL1        0.0733
     20 C          -3.8030  -19.9213   19.5625 C.3     1  UNL1        0.0434
     21 C          -1.8559  -16.7500   22.0927 C.ar    1  UNL1       -0.0000
     22 C          -2.4988  -17.9388   22.7435 C.ar    1  UNL1       -0.0003
     23 C          -3.1479  -18.9959   21.9001 C.ar    1  UNL1       -0.0042
     24 C          -3.1540  -18.8642   20.4059 C.ar    1  UNL1       -0.0208
     25 C          -2.5111  -17.6754   19.7551 C.ar    1  UNL1       -0.0042
     26 C          -1.8621  -16.6184   20.5985 C.ar    1  UNL1       -0.0003
@<TRIPOS>BOND
     1    21    22   ar
     2    22    23   ar
     3    23    24   ar
     4    24    20    1
     5    20    19    1
     6    19    17    1
     7    17    16    1
     8    16    15    1
     9    15     1    1
    10     1     2    1
    11     2     3   ar
    12     3     4   ar
    13     4     5   ar
    14     5     6   ar
    15     6     7   ar
    16     7     8    1
    17     8     9    1
    18     9    10   ar
    19    10    11   ar
    20    11    12   ar
    21    12    13   ar
    22    13    14   ar
    23    24    25   ar
    24    25    26   ar
    25    26    21   ar
    26    14     1    1
    27     7     2   ar
    28    14     9   ar
    29    17    18    1
@<TRIPOS>MOLECULE
*****
 26 29 0 0 0
SMALL
GASTEIGER

@<TRIPOS>ATOM
      1 C          -6.6311  -18.3103   22.3045 C.3     1  UNL1        0.0469
      2 C          -5.3355  -18.8779   21.8050 C.ar    1  UNL1       -0.0124
      3 C          -5.3425  -19.9985   20.8080 C.ar    1  UNL1       -0.0035
      4 C          -4.0470  -20.5660   20.3085 C.ar    1  UNL1       -0.0003
      5 C          -2.7445  -20.0129   20.8061 C.ar    1  UNL1        0.0005
      6 C          -2.7375  -18.8922   21.8031 C.ar    1  UNL1        0.0062
      7 C          -4.0330  -18.3247   22.3025 C.ar    1  UNL1        0.0258
      8 S          -4.0261  -17.2040   23.2996 S.3     1  UNL1       -0.0875
      9 C          -5.3217  -16.6365   23.7990 C.ar    1  UNL1        0.0258
     10 C          -5.3147  -15.5158   24.7961 C.ar    1  UNL1        0.0062
     11 C          -6.6103  -14.9483   25.2955 C.ar    1  UNL1        0.0005
     12 C          -7.9128  -15.5014   24.7980 C.ar    1  UNL1       -0.0003
     13 C          -7.9197  -16.6221   23.8010 C.ar    1  UNL1       -0.0035
     14 C          -6.6241  -17.1896   23.3015 C.ar    1  UNL1       -0.0124
     15 C          -7.9336  -18.8634   21.8069 C.3     1  UNL1        0.0258
     16 C          -8.5697  -20.0282   22.5059 C.3     1  UNL1        0.0692
     17 N          -9.2037  -19.8399   23.8522 N.3     1  UNL1       -0.2972
     18 H          -8.7645  -20.5122   24.4811 H       1  UNL1        0.1233
     19 C         -10.6864  -20.0017   24.0122 C.3     1  UNL1        0.0733
     20 C         -11.5995  -18.8393   23.7574 C.3     1  UNL1        0.0434
     21 C         -11.2308  -16.4827   19.9417 C.ar    1  UNL1       -0.0000
     22 C         -11.4438  -17.9665   19.8891 C.ar    1  UNL1       -0.0003
     23 C         -11.5667  -18.7521   21.1611 C.ar    1  UNL1       -0.0042
     24 C         -11.4766  -18.0538   22.4855 C.ar    1  UNL1       -0.0208
     25 C         -11.2636  -16.5699   22.5381 C.ar    1  UNL1       -0.0042
     26 C         -11.1407  -15.7843   21.2662 C.ar    1  UNL1       -0.0003
@<TRIPOS>BOND
     1    21    22   ar
     2    22    23   ar
     3    23    24   ar
     4    24    20    1
     5    20    19    1
     6    19    17    1
     7    17    16    1
     8    16    15    1
     9    15     1    1
    10     1     2    1
    11     2     3   ar
    12     3     4   ar
    13     4     5   ar
    14     5     6   ar
    15     6     7   ar
    16     7     8    1
    17     8     9    1
    18     9    10   ar
    19    10    11   ar
    20    11    12   ar
    21    12    13   ar
    22    13    14   ar
    23    24    25   ar
    24    25    26   ar
    25    26    21   ar
    26    14     1    1
    27     7     2   ar
    28    14     9   ar
    29    17    18    1
@<TRIPOS>MOLECULE
*****
 26 29 0 0 0
SMALL
GASTEIGER

@<TRIPOS>ATOM
      1 C          -7.6692  -17.2639   22.6478 C.3     1  UNL1        0.0469
      2 C          -6.9920  -18.3260   21.8332 C.ar    1  UNL1       -0.0124
      3 C          -7.7594  -19.0643   20.7768 C.ar    1  UNL1       -0.0035
      4 C          -7.0822  -20.1264   19.9624 C.ar    1  UNL1       -0.0003
      5 C          -5.6377  -20.4502   20.2043 C.ar    1  UNL1        0.0005
      6 C          -4.8704  -19.7119   21.2608 C.ar    1  UNL1        0.0062
      7 C          -5.5475  -18.6498   22.0752 C.ar    1  UNL1        0.0258
      8 S          -4.7802  -17.9115   23.1317 S.3     1  UNL1       -0.0875
      9 C          -5.4574  -16.8494   23.9462 C.ar    1  UNL1        0.0258
     10 C          -4.6900  -16.1111   25.0027 C.ar    1  UNL1        0.0062
     11 C          -5.3672  -15.0490   25.8171 C.ar    1  UNL1        0.0005
     12 C          -6.8117  -14.7252   25.5752 C.ar    1  UNL1       -0.0003
     13 C          -7.5790  -15.4635   24.5187 C.ar    1  UNL1       -0.0035
     14 C          -6.9019  -16.5256   23.7042 C.ar    1  UNL1       -0.0124
     15 C          -9.1137  -16.9401   22.4058 C.3     1  UNL1        0.0258
     16 C          -9.4895  -15.8984   21.3941 C.3     1  UNL1        0.0692
     17 N         -10.5747  -16.1782   20.3970 N.3     1  UNL1       -0.2972
     18 H         -10.5303  -15.4370   19.6977 H       1  UNL1        0.1233
     19 C         -12.0030  -16.2638   20.8473 C.3     1  UNL1        0.0733
     20 C         -12.5916  -17.5904   21.2266 C.3     1  UNL1        0.0434
     21 C         -10.6027  -20.1166   24.3750 C.ar    1  UNL1       -0.0000
     22 C         -11.4155  -18.9212   24.7756 C.ar    1  UNL1       -0.0003
     23 C         -12.0784  -18.0791   23.7261 C.ar    1  UNL1       -0.0042
     24 C         -11.9286  -18.4324   22.2761 C.ar    1  UNL1       -0.0208
     25 C         -11.1159  -19.6278   21.8755 C.ar    1  UNL1       -0.0042
     26 C         -10.4530  -20.4699   22.9249 C.ar    1  UNL1       -0.0003
@<TRIPOS>BOND
     1    21    22   ar
     2    22    23   ar
     3    23    24   ar
     4    24    20    1
     5    20    19    1
     6    19    17    1
     7    17    16    1
     8    16    15    1
     9    15     1    1
    10     1     2    1
    11     2     3   ar
    12     3     4   ar
    13     4     5   ar
    14     5     6   ar
    15     6     7   ar
    16     7     8    1
    17     8     9    1
    18     9    10   ar
    19    10    11   ar
    20    11    12   ar
    21    12    13   ar
    22    13    14   ar
    23    24    25   ar
    24    25    26   ar
    25    26    21   ar
    26    14     1    1
    27     7     2   ar
    28    14     9   ar
    29    17    18    1
@<TRIPOS>MOLECULE
*****
 26 29 0 0 0
SMALL
GASTEIGER

@<TRIPOS>ATOM
      1 C          -6.4127  -18.1297   22.2029 C.3     1  UNL1        0.0469
      2 C          -7.4589  -18.6457   21.2597 C.ar    1  UNL1       -0.0124
      3 C          -8.8947  -18.2531   21.4448 C.ar    1  UNL1       -0.0035
      4 C          -9.9408  -18.7691   20.5017 C.ar    1  UNL1       -0.0003
      5 C          -9.5510  -19.6776   19.3735 C.ar    1  UNL1        0.0005
      6 C          -8.1152  -20.0702   19.1885 C.ar    1  UNL1        0.0062
      7 C          -7.0691  -19.5542   20.1316 C.ar    1  UNL1        0.0258
      8 S          -5.6332  -19.9467   19.9466 S.3     1  UNL1       -0.0875
      9 C          -4.5872  -19.4308   20.8897 C.ar    1  UNL1        0.0258
     10 C          -3.1513  -19.8233   20.7047 C.ar    1  UNL1        0.0062
     11 C          -2.1052  -19.3073   21.6478 C.ar    1  UNL1        0.0005
     12 C          -2.4949  -18.3988   22.7759 C.ar    1  UNL1       -0.0003
     13 C          -3.9308  -18.0063   22.9610 C.ar    1  UNL1       -0.0035
     14 C          -4.9769  -18.5222   22.0178 C.ar    1  UNL1       -0.0124
     15 C          -6.8025  -17.2211   23.3310 C.3     1  UNL1        0.0258
     16 C          -6.9097  -15.7428   23.1006 C.3     1  UNL1        0.0692
     17 N          -7.3649  -14.8420   24.2102 N.3     1  UNL1       -0.2972
     18 H          -6.5906  -14.7738   24.8707 H       1  UNL1        0.1233
     19 C          -8.5854  -15.1932   25.0085 C.3     1  UNL1        0.0733
     20 C          -9.1013  -16.6017   25.0094 C.3     1  UNL1        0.0434
     21 C         -12.7581  -17.6601   22.6099 C.ar    1  UNL1       -0.0000
     22 C         -12.0963  -16.3274   22.4201 C.ar    1  UNL1       -0.0003
     23 C         -10.8773  -15.9746   23.2200 C.ar    1  UNL1       -0.0042
     24 C         -10.3202  -16.9545   24.2096 C.ar    1  UNL1       -0.0208
     25 C         -10.9820  -18.2872   24.3995 C.ar    1  UNL1       -0.0042
     26 C         -12.2009  -18.6400   23.5997 C.ar    1  UNL1       -0.0003
@<TRIPOS>BOND
     1    21    22   ar
     2    22    23   ar
     3    23    24   ar
     4    24    20    1
     5    20    19    1
     6    19    17    1
     7    17    16    1
     8    16    15    1
     9    15     1    1
    10     1     2    1
    11     2     3   ar
    12     3     4   ar
    13     4     5   ar
    14     5     6   ar
    15     6     7   ar
    16     7     8    1
    17     8     9    1
    18     9    10   ar
    19    10    11   ar
    20    11    12   ar
    21    12    13   ar
    22    13    14   ar
    23    24    25   ar
    24    25    26   ar
    25    26    21   ar
    26    14     1    1
    27     7     2   ar
    28    14     9   ar
    29    17    18    1
@<TRIPOS>MOLECULE
*****
 26 29 0 0 0
SMALL
GASTEIGER

@<TRIPOS>ATOM
      1 C          -8.6039  -17.2452   21.9539 C.3     1  UNL1        0.0469
      2 C          -7.8708  -18.3440   21.2429 C.ar    1  UNL1       -0.0124
      3 C          -6.3715  -18.3823   21.2656 C.ar    1  UNL1       -0.0035
      4 C          -5.6385  -19.4810   20.5546 C.ar    1  UNL1       -0.0003
      5 C          -6.4049  -20.5413   19.8208 C.ar    1  UNL1        0.0005
      6 C          -7.9042  -20.5030   19.7981 C.ar    1  UNL1        0.0062
      7 C          -8.6372  -19.4043   20.5091 C.ar    1  UNL1        0.0258
      8 S         -10.1365  -19.3659   20.4864 S.3     1  UNL1       -0.0875
      9 C         -10.8695  -18.2672   21.1974 C.ar    1  UNL1        0.0258
     10 C         -12.3689  -18.2289   21.1747 C.ar    1  UNL1        0.0062
     11 C         -13.1019  -17.1302   21.8857 C.ar    1  UNL1        0.0005
     12 C         -12.3356  -16.0698   22.6195 C.ar    1  UNL1       -0.0003
     13 C         -10.8363  -16.1082   22.6422 C.ar    1  UNL1       -0.0035
     14 C         -10.1032  -17.2069   21.9312 C.ar    1  UNL1       -0.0124
     15 C          -7.8376  -16.1849   22.6877 C.3     1  UNL1        0.0258
     16 C          -7.4075  -16.4162   24.1059 C.3     1  UNL1        0.0692
     17 N          -6.1840  -15.7320   24.6397 N.3     1  UNL1       -0.2972
     18 H          -6.4076  -14.7390   24.7069 H       1  UNL1        0.1233
     19 C          -4.8840  -15.8339   23.8983 C.3     1  UNL1        0.0733
     20 C          -4.1250  -17.1277   23.8897 C.3     1  UNL1        0.0434
     21 C          -1.2595  -18.0331   20.5402 C.ar    1  UNL1       -0.0000
     22 C          -1.5279  -16.6107   20.9338 C.ar    1  UNL1       -0.0003
     23 C          -2.4831  -16.3089   22.0503 C.ar    1  UNL1       -0.0042
     24 C          -3.1698  -17.4295   22.7733 C.ar    1  UNL1       -0.0208
     25 C          -2.9015  -18.8518   22.3797 C.ar    1  UNL1       -0.0042
     26 C          -1.9463  -19.1537   21.2632 C.ar    1  UNL1       -0.0003
@<TRIPOS>BOND
     1    21    22   ar
     2    22    23   ar
     3    23    24   ar
     4    24    20    1
     5    20    19    1
     6    19    17    1
     7    17    16    1
     8    16    15    1
     9    15     1    1
    10     1     2    1
    11     2     3   ar
    12     3     4   ar
    13     4     5   ar
    14     5     6   ar
    15     6     7   ar
    16     7     8    1
    17     8     9    1
    18     9    10   ar
    19    10    11   ar
    20    11    12   ar
    21    12    13   ar
    22    13    14   ar
    23    24    25   ar
    24    25    26   ar
    25    26    21   ar
    26    14     1    1
    27     7     2   ar
    28    14     9   ar
    29    17    18    1
@<TRIPOS>MOLECULE
*****
 26 29 0 0 0
SMALL
GASTEIGER

@<TRIPOS>ATOM
      1 C          -4.3945  -17.7098   22.3292 C.3     1  UNL1        0.0469
      2 C          -3.1698  -17.6577   21.4646 C.ar    1  UNL1       -0.0124
      3 C          -1.9837  -16.8453   21.8924 C.ar    1  UNL1       -0.0035
      4 C          -0.7591  -16.7932   21.0279 C.ar    1  UNL1       -0.0003
      5 C          -0.7205  -17.5537   19.7355 C.ar    1  UNL1        0.0005
      6 C          -1.9066  -18.3662   19.3077 C.ar    1  UNL1        0.0062
      7 C          -3.1312  -18.4182   20.1723 C.ar    1  UNL1        0.0258
      8 S          -4.3174  -19.2307   19.7445 S.3     1  UNL1       -0.0875
      9 C          -5.5420  -19.2828   20.6091 C.ar    1  UNL1        0.0258
     10 C          -6.7281  -20.0953   20.1813 C.ar    1  UNL1        0.0062
     11 C          -7.9528  -20.1473   21.0458 C.ar    1  UNL1        0.0005
     12 C          -7.9913  -19.3869   22.3382 C.ar    1  UNL1       -0.0003
     13 C          -6.8053  -18.5744   22.7660 C.ar    1  UNL1       -0.0035
     14 C          -5.5805  -18.5223   21.9014 C.ar    1  UNL1       -0.0124
     15 C          -4.4330  -16.9494   23.6216 C.3     1  UNL1        0.0258
     16 C          -5.0296  -15.5738   23.6649 C.3     1  UNL1        0.0692
     17 N          -5.6563  -15.0676   24.9302 N.3     1  UNL1       -0.2972
     18 H          -5.3457  -15.6852   25.6802 H       1  UNL1        0.1233
     19 C          -7.1491  -14.9691   25.0406 C.3     1  UNL1        0.0733
     20 C          -7.9283  -16.0776   25.6840 C.3     1  UNL1        0.0434
     21 C         -11.2619  -18.0888   23.4273 C.ar    1  UNL1       -0.0000
     22 C         -10.6817  -16.8022   22.9193 C.ar    1  UNL1       -0.0003
     23 C          -9.5704  -16.1318   23.6715 C.ar    1  UNL1       -0.0042
     24 C          -9.0395  -16.7480   24.9318 C.ar    1  UNL1       -0.0208
     25 C          -9.6197  -18.0345   25.4399 C.ar    1  UNL1       -0.0042
     26 C         -10.7308  -18.7049   24.6877 C.ar    1  UNL1       -0.0003
@<TRIPOS>BOND
     1    21    22   ar
     2    22    23   ar
     3    23    24   ar
     4    24    20    1
     5    20    19    1
     6    19    17    1
     7    17    16    1
     8    16    15    1
     9    15     1    1
    10     1     2    1
    11     2     3   ar
    12     3     4   ar
    13     4     5   ar
    14     5     6   ar
    15     6     7   ar
    16     7     8    1
    17     8     9    1
    18     9    10   ar
    19    10    11   ar
    20    11    12   ar
    21    12    13   ar
    22    13    14   ar
    23    24    25   ar
    24    25    26   ar
    25    26    21   ar
    26    14     1    1
    27     7     2   ar
    28    14     9   ar
    29    17    18    1
@<TRIPOS>MOLECULE
*****
 26 29 0 0 0
SMALL
GASTEIGER

@<TRIPOS>ATOM
      1 C         -10.3315  -17.3359   24.0083 C.3     1  UNL1        0.0469
      2 C          -9.1863  -16.6880   24.7286 C.ar    1  UNL1       -0.0124
      3 C          -8.8674  -17.0842   26.1397 C.ar    1  UNL1       -0.0035
      4 C          -7.7222  -16.4364   26.8600 C.ar    1  UNL1       -0.0003
      5 C          -6.8959  -15.3924   26.1691 C.ar    1  UNL1        0.0005
      6 C          -7.2148  -14.9962   24.7580 C.ar    1  UNL1        0.0062
      7 C          -8.3600  -15.6440   24.0378 C.ar    1  UNL1        0.0258
      8 S          -8.6789  -15.2478   22.6266 S.3     1  UNL1       -0.0875
      9 C          -9.8241  -15.8957   21.9063 C.ar    1  UNL1        0.0258
     10 C         -10.1430  -15.4995   20.4951 C.ar    1  UNL1        0.0062
     11 C         -11.2882  -16.1473   19.7748 C.ar    1  UNL1        0.0005
     12 C         -12.1145  -17.1913   20.4657 C.ar    1  UNL1       -0.0003
     13 C         -11.7956  -17.5875   21.8768 C.ar    1  UNL1       -0.0035
     14 C         -10.6504  -16.9397   22.5972 C.ar    1  UNL1       -0.0124
     15 C         -11.1578  -18.3799   24.6991 C.3     1  UNL1        0.0258
     16 C         -10.9127  -19.8338   24.4236 C.3     1  UNL1        0.0692
     17 N          -9.5554  -20.4246   24.6656 N.3     1  UNL1       -0.2972
     18 H          -9.0558  -19.7754   25.2733 H       1  UNL1        0.1233
     19 C          -8.6483  -20.7192   23.5077 C.3     1  UNL1        0.0733
     20 C          -8.2048  -19.6094   22.6012 C.3     1  UNL1        0.0434
     21 C          -4.1241  -19.7444   20.7093 C.ar    1  UNL1       -0.0000
     22 C          -5.1814  -20.7190   20.2823 C.ar    1  UNL1       -0.0003
     23 C          -6.5416  -20.6740   20.9130 C.ar    1  UNL1       -0.0042
     24 C          -6.8446  -19.6544   21.9706 C.ar    1  UNL1       -0.0208
     25 C          -5.7874  -18.6797   22.3976 C.ar    1  UNL1       -0.0042
     26 C          -4.4271  -18.7247   21.7669 C.ar    1  UNL1       -0.0003
@<TRIPOS>BOND
     1    21    22   ar
     2    22    23   ar
     3    23    24   ar
     4    24    20    1
     5    20    19    1
     6    19    17    1
     7    17    16    1
     8    16    15    1
     9    15     1    1
    10     1     2    1
    11     2     3   ar
    12     3     4   ar
    13     4     5   ar
    14     5     6   ar
    15     6     7   ar
    16     7     8    1
    17     8     9    1
    18     9    10   ar
    19    10    11   ar
    20    11    12   ar
    21    12    13   ar
    22    13    14   ar
    23    24    25   ar
    24    25    26   ar
    25    26    21   ar
    26    14     1    1
    27     7     2   ar
    28    14     9   ar
    29    17    18    1
