@<TRIPOS>MOLECULE
*****
 30 32 0 0 0
SMALL
GASTEIGER

@<TRIPOS>ATOM
      1 C          -9.5890  -19.2588   19.7643 C.3     1  UNL1        0.1040
      2 C          -7.0824  -19.8646   20.0808 C.2     1  UNL1        0.2489
      3 O          -7.3285  -21.2073   19.4590 O.2     1  UNL1       -0.2700
      4 N          -8.2126  -18.8904   20.2334 N.am    1  UNL1       -0.2995
      5 H          -8.0511  -18.0091   20.6415 H       1  UNL1        0.1498
      6 C           0.4251  -17.5728   19.9905 C.3     1  UNL1        0.0540
      7 C          -0.9714  -18.0295   20.2926 C.ar    1  UNL1        0.0824
      8 C          -1.5222  -18.3419   21.6524 C.ar    1  UNL1        0.0552
      9 C          -2.9535  -18.7595   21.4881 C.ar    1  UNL1        0.1650
     10 N          -3.9959  -19.1821   22.4803 N.ar    1  UNL1       -0.2248
     11 C          -5.3722  -19.5505   22.0112 C.ar    1  UNL1        0.1066
     12 C          -5.7060  -19.4962   20.5498 C.ar    1  UNL1        0.0917
     13 C          -4.6636  -19.0736   19.5576 C.ar    1  UNL1        0.1081
     14 N          -3.2873  -18.7052   20.0267 N.ar    1  UNL1       -0.2108
     15 N          -2.0623  -18.2541   19.2879 N.ar    1  UNL1       -0.1680
     16 C         -10.7786  -18.9735   20.6323 C.3     1  UNL1        0.0606
     17 C         -11.1631  -17.8371   19.7319 C.3     1  UNL1        0.0175
     18 C         -10.3941  -20.1098   21.5328 C.3     1  UNL1        0.0175
     19 N         -11.9681  -18.6882   21.5003 N.3     1  UNL1       -0.2905
     20 H         -12.4810  -19.5648   21.5944 H       1  UNL1        0.1237
     21 C         -11.7731  -18.1497   22.8867 C.3     1  UNL1        0.1551
     22 C         -11.2037  -16.7761   23.0846 C.2     1  UNL1        0.2425
     23 O         -11.7251  -15.6246   22.2771 O.2     1  UNL1       -0.2733
     24 N         -10.1128  -16.5542   24.0899 N.am    1  UNL1       -0.2674
     25 C          -9.4491  -15.2443   24.3961 C.3     1  UNL1        0.0945
     26 C          -8.4202  -15.4837   25.4610 C.3     1  UNL1        0.0244
     27 C          -8.4479  -16.9416   25.8129 C.3     1  UNL1        0.0373
     28 C          -9.4940  -17.6032   24.9655 C.3     1  UNL1        0.1672
     29 C          -9.8574  -19.0582   24.9896 C.1     1  UNL1        0.0926
     30 N         -10.2209  -20.5134   25.0136 N.1     1  UNL1       -0.1942
@<TRIPOS>BOND
     1     6     7    1
     2     7     8   ar
     3     8     9   ar
     4     9    10   ar
     5    10    11   ar
     6    11    12   ar
     7    12     2    1
     8     2     3    2
     9     2     4   am
    10     4     1    1
    11     1    16    1
    12    16    17    1
    13    16    18    1
    14    16    19    1
    15    19    21    1
    16    21    22    1
    17    22    23    2
    18    22    24   am
    19    24    25    1
    20    25    26    1
    21    26    27    1
    22    27    28    1
    23    28    29    1
    24    29    30    3
    25    12    13   ar
    26    13    14   ar
    27    14    15   ar
    28    15     7   ar
    29    14     9   ar
    30    28    24    1
    31     4     5    1
    32    19    20    1
@<TRIPOS>MOLECULE
*****
 30 32 0 0 0
SMALL
GASTEIGER

@<TRIPOS>ATOM
      1 C         -10.7377  -15.2152   21.4505 C.3     1  UNL1        0.1040
      2 C          -8.7760  -16.2070   22.8355 C.2     1  UNL1        0.2489
      3 O          -9.6744  -16.3130   24.0320 O.2     1  UNL1       -0.2700
      4 N          -9.3076  -15.6581   21.5448 N.am    1  UNL1       -0.2995
      5 H          -8.7179  -15.5885   20.7595 H       1  UNL1        0.1498
      6 C          -2.1258  -20.1595   21.5026 C.3     1  UNL1        0.0540
      7 C          -3.2390  -19.2588   21.9495 C.ar    1  UNL1        0.0824
      8 C          -3.1392  -18.1838   22.9909 C.ar    1  UNL1        0.0552
      9 C          -4.4859  -17.5355   23.1184 C.ar    1  UNL1        0.1650
     10 N          -4.9838  -16.4184   23.9867 N.ar    1  UNL1       -0.2248
     11 C          -6.4138  -15.9755   23.8924 C.ar    1  UNL1        0.1066
     12 C          -7.3459  -16.6499   22.9298 C.ar    1  UNL1        0.0917
     13 C          -6.8480  -17.7670   22.0615 C.ar    1  UNL1        0.1081
     14 N          -5.4180  -18.2099   22.1559 N.ar    1  UNL1       -0.2108
     15 N          -4.6473  -19.2749   21.4334 N.ar    1  UNL1       -0.1680
     16 C         -11.8146  -16.2159   21.1527 C.3     1  UNL1        0.0606
     17 C         -11.2232  -16.4481   19.7940 C.3     1  UNL1        0.0175
     18 C         -12.4061  -15.9837   22.5114 C.3     1  UNL1        0.0175
     19 N         -12.8916  -17.2165   20.8549 N.3     1  UNL1       -0.2905
     20 H         -12.9898  -17.2503   19.8402 H       1  UNL1        0.1237
     21 C         -12.7485  -18.6343   21.3234 C.3     1  UNL1        0.1551
     22 C         -11.3988  -19.2888   21.3317 C.2     1  UNL1        0.2425
     23 O         -10.7104  -19.6046   20.0369 O.2     1  UNL1       -0.2733
     24 N         -10.7375  -19.6275   22.6348 N.am    1  UNL1       -0.2674
     25 C          -9.3969  -20.2798   22.7998 C.3     1  UNL1        0.0945
     26 C          -9.1315  -20.4288   24.2686 C.3     1  UNL1        0.0244
     27 C         -10.3082  -19.8686   25.0114 C.3     1  UNL1        0.0373
     28 C         -11.3008  -19.3734   24.0016 C.3     1  UNL1        0.1672
     29 C         -12.6241  -18.7360   24.3053 C.1     1  UNL1        0.0926
     30 N         -13.9475  -18.0985   24.6091 N.1     1  UNL1       -0.1942
@<TRIPOS>BOND
     1     6     7    1
     2     7     8   ar
     3     8     9   ar
     4     9    10   ar
     5    10    11   ar
     6    11    12   ar
     7    12     2    1
     8     2     3    2
     9     2     4   am
    10     4     1    1
    11     1    16    1
    12    16    17    1
    13    16    18    1
    14    16    19    1
    15    19    21    1
    16    21    22    1
    17    22    23    2
    18    22    24   am
    19    24    25    1
    20    25    26    1
    21    26    27    1
    22    27    28    1
    23    28    29    1
    24    29    30    3
    25    12    13   ar
    26    13    14   ar
    27    14    15   ar
    28    15     7   ar
    29    14     9   ar
    30    28    24    1
    31     4     5    1
    32    19    20    1
@<TRIPOS>MOLECULE
*****
 30 32 0 0 0
SMALL
GASTEIGER

@<TRIPOS>ATOM
      1 C          -5.9043  -15.4838   25.2768 C.3     1  UNL1        0.1040
      2 C          -4.0794  -17.0159   24.2412 C.2     1  UNL1        0.2489
      3 O          -3.9084  -17.7053   25.5624 O.2     1  UNL1       -0.2700
      4 N          -5.0773  -15.9052   24.0984 N.am    1  UNL1       -0.2995
      5 H          -5.1895  -15.4527   23.2313 H       1  UNL1        0.1498
      6 C          -1.4934  -17.7361   16.8644 C.3     1  UNL1        0.0540
      7 C          -1.7672  -17.7721   18.3388 C.ar    1  UNL1        0.0824
      8 C          -0.9735  -18.5254   19.3648 C.ar    1  UNL1        0.0552
      9 C          -1.5985  -18.2800   20.7061 C.ar    1  UNL1        0.1650
     10 N          -1.2456  -18.7637   22.0814 N.ar    1  UNL1       -0.2248
     11 C          -2.0726  -18.3423   23.2597 C.ar    1  UNL1        0.1066
     12 C          -3.2524  -17.4372   23.0628 C.ar    1  UNL1        0.0917
     13 C          -3.6053  -16.9536   21.6875 C.ar    1  UNL1        0.1081
     14 N          -2.7783  -17.3749   20.5092 N.ar    1  UNL1       -0.2108
     15 N          -2.8826  -17.0610   19.0461 N.ar    1  UNL1       -0.1680
     16 C          -7.3995  -15.4379   25.1659 C.3     1  UNL1        0.0606
     17 C          -7.2826  -15.1991   23.6897 C.3     1  UNL1        0.0175
     18 C          -7.5164  -15.6768   26.6421 C.3     1  UNL1        0.0175
     19 N          -8.8946  -15.3921   25.0549 N.3     1  UNL1       -0.2905
     20 H          -9.1484  -14.4169   24.8968 H       1  UNL1        0.1237
     21 C          -9.5935  -16.1978   24.0002 C.3     1  UNL1        0.1551
     22 C          -9.8902  -17.6488   24.2386 C.2     1  UNL1        0.2425
     23 O          -9.7279  -18.2319   25.6110 O.2     1  UNL1       -0.2733
     24 N         -10.3493  -18.5166   23.1045 N.am    1  UNL1       -0.2674
     25 C         -10.6819  -19.9767   23.1903 C.3     1  UNL1        0.0945
     26 C         -11.0946  -20.4392   21.8243 C.3     1  UNL1        0.0244
     27 C         -11.0170  -19.2648   20.8943 C.3     1  UNL1        0.0373
     28 C         -10.5564  -18.0766   21.6854 C.3     1  UNL1        0.1672
     29 C         -10.3408  -16.6916   21.1514 C.1     1  UNL1        0.0926
     30 N         -10.1250  -15.3066   20.6174 N.1     1  UNL1       -0.1942
@<TRIPOS>BOND
     1     6     7    1
     2     7     8   ar
     3     8     9   ar
     4     9    10   ar
     5    10    11   ar
     6    11    12   ar
     7    12     2    1
     8     2     3    2
     9     2     4   am
    10     4     1    1
    11     1    16    1
    12    16    17    1
    13    16    18    1
    14    16    19    1
    15    19    21    1
    16    21    22    1
    17    22    23    2
    18    22    24   am
    19    24    25    1
    20    25    26    1
    21    26    27    1
    22    27    28    1
    23    28    29    1
    24    29    30    3
    25    12    13   ar
    26    13    14   ar
    27    14    15   ar
    28    15     7   ar
    29    14     9   ar
    30    28    24    1
    31     4     5    1
    32    19    20    1
@<TRIPOS>MOLECULE
*****
 30 32 0 0 0
SMALL
GASTEIGER

@<TRIPOS>ATOM
      1 C           6.0858   -2.7493   32.3615 C.3     1  UNL1        0.1040
      2 C           6.9323   -4.9506   31.2717 C.2     1  UNL1        0.2489
      3 O           6.5345   -5.7123   32.5011 O.2     1  UNL1       -0.2700
      4 N           6.7080   -3.4692   31.2018 N.am    1  UNL1       -0.2995
      5 H           6.9691   -2.9693   30.3949 H       1  UNL1        0.1498
      6 C           8.3363   -7.4115   23.9507 C.3     1  UNL1        0.0540
      7 C           8.2894   -7.1116   25.4197 C.ar    1  UNL1        0.0824
      8 C           9.2026   -7.6798   26.4652 C.ar    1  UNL1        0.0552
      9 C           8.7986   -7.1102   27.7927 C.ar    1  UNL1        0.1650
     10 N           9.3394   -7.3107   29.1774 N.ar    1  UNL1       -0.2248
     11 C           8.7173   -6.5908   30.3370 C.ar    1  UNL1        0.1066
     12 C           7.5544   -5.6705   30.1119 C.ar    1  UNL1        0.0917
     13 C           7.0136   -5.4701   28.7273 C.ar    1  UNL1        0.1081
     14 N           7.6357   -6.1899   27.5677 N.ar    1  UNL1       -0.2108
     15 N           7.3210   -6.1908   26.1011 N.ar    1  UNL1       -0.1680
     16 C           4.7740   -2.0428   32.1893 C.3     1  UNL1        0.0606
     17 C           4.3102   -2.5818   33.5100 C.3     1  UNL1        0.0175
     18 C           5.2377   -1.5037   30.8686 C.3     1  UNL1        0.0175
     19 N           3.4621   -1.3362   32.0171 N.3     1  UNL1       -0.2905
     20 H           3.3482   -0.7253   32.8259 H       1  UNL1        0.1237
     21 C           3.2181   -0.4936   30.8003 C.3     1  UNL1        0.1551
     22 C           2.1684    0.5776   30.8280 C.2     1  UNL1        0.2425
     23 O           1.7933    1.2267   32.1272 O.2     1  UNL1       -0.2733
     24 N           1.4938    0.9997   29.5565 N.am    1  UNL1       -0.2674
     25 C           0.4318    2.0513   29.4289 C.3     1  UNL1        0.0945
     26 C           0.0444    2.1458   27.9828 C.3     1  UNL1        0.0244
     27 C           0.8670    1.1526   27.2167 C.3     1  UNL1        0.0373
     28 C           1.7628    0.4442   28.1893 C.3     1  UNL1        0.1672
     29 C           2.7535   -0.6308   27.8536 C.1     1  UNL1        0.0926
     30 N           3.7442   -1.7059   27.5179 N.1     1  UNL1       -0.1942
@<TRIPOS>BOND
     1     6     7    1
     2     7     8   ar
     3     8     9   ar
     4     9    10   ar
     5    10    11   ar
     6    11    12   ar
     7    12     2    1
     8     2     3    2
     9     2     4   am
    10     4     1    1
    11     1    16    1
    12    16    17    1
    13    16    18    1
    14    16    19    1
    15    19    21    1
    16    21    22    1
    17    22    23    2
    18    22    24   am
    19    24    25    1
    20    25    26    1
    21    26    27    1
    22    27    28    1
    23    28    29    1
    24    29    30    3
    25    12    13   ar
    26    13    14   ar
    27    14    15   ar
    28    15     7   ar
    29    14     9   ar
    30    28    24    1
    31     4     5    1
    32    19    20    1
@<TRIPOS>MOLECULE
*****
 30 32 0 0 0
SMALL
GASTEIGER

@<TRIPOS>ATOM
      1 C           8.4596   -5.2399   25.5122 C.3     1  UNL1        0.1040
      2 C           7.2654   -4.6806   23.2736 C.2     1  UNL1        0.2489
      3 O           8.0525   -5.7560   22.5851 O.2     1  UNL1       -0.2700
      4 N           7.4689   -4.4226   24.7371 N.am    1  UNL1       -0.2995
      5 H           6.9524   -3.7168   25.1890 H       1  UNL1        0.1498
      6 C           3.7783   -0.9185   17.3315 C.3     1  UNL1        0.0540
      7 C           4.2206   -1.5433   18.6214 C.ar    1  UNL1        0.0824
      8 C           3.4975   -1.4637   19.9332 C.ar    1  UNL1        0.0552
      9 C           4.2936   -2.2286   20.9486 C.ar    1  UNL1        0.1650
     10 N           4.0690   -2.4935   22.4078 N.ar    1  UNL1       -0.2248
     11 C           5.0596   -3.3108   23.1828 C.ar    1  UNL1        0.1066
     12 C           6.2748   -3.8632   22.4985 C.ar    1  UNL1        0.0917
     13 C           6.4994   -3.5983   21.0393 C.ar    1  UNL1        0.1081
     14 N           5.5088   -2.7810   20.2644 N.ar    1  UNL1       -0.2108
     15 N           5.4636   -2.3575   18.8261 N.ar    1  UNL1       -0.1680
     16 C           8.1420   -5.6732   26.9127 C.3     1  UNL1        0.0606
     17 C           7.0642   -6.5755   26.3891 C.3     1  UNL1        0.0175
     18 C           9.2199   -4.7710   27.4362 C.3     1  UNL1        0.0175
     19 N           7.8244   -6.1066   28.3131 N.3     1  UNL1       -0.2905
     20 H           8.6438   -5.8909   28.8810 H       1  UNL1        0.1237
     21 C           6.6386   -5.5280   29.0266 C.3     1  UNL1        0.1551
     22 C           6.7498   -5.1359   30.4702 C.2     1  UNL1        0.2425
     23 O           6.9893   -6.1843   31.5158 O.2     1  UNL1       -0.2733
     24 N           6.6213   -3.6953   30.8681 N.am    1  UNL1       -0.2674
     25 C           6.7097   -3.1552   32.2647 C.3     1  UNL1        0.0945
     26 C           6.5249   -1.6680   32.1991 C.3     1  UNL1        0.0244
     27 C           6.3224   -1.2891   30.7619 C.3     1  UNL1        0.0373
     28 C           6.3820   -2.5420   29.9393 C.3     1  UNL1        0.1672
     29 C           6.2291   -2.6268   28.4496 C.1     1  UNL1        0.0926
     30 N           6.0762   -2.7115   26.9598 N.1     1  UNL1       -0.1942
@<TRIPOS>BOND
     1     6     7    1
     2     7     8   ar
     3     8     9   ar
     4     9    10   ar
     5    10    11   ar
     6    11    12   ar
     7    12     2    1
     8     2     3    2
     9     2     4   am
    10     4     1    1
    11     1    16    1
    12    16    17    1
    13    16    18    1
    14    16    19    1
    15    19    21    1
    16    21    22    1
    17    22    23    2
    18    22    24   am
    19    24    25    1
    20    25    26    1
    21    26    27    1
    22    27    28    1
    23    28    29    1
    24    29    30    3
    25    12    13   ar
    26    13    14   ar
    27    14    15   ar
    28    15     7   ar
    29    14     9   ar
    30    28    24    1
    31     4     5    1
    32    19    20    1
@<TRIPOS>MOLECULE
*****
 30 32 0 0 0
SMALL
GASTEIGER

@<TRIPOS>ATOM
      1 C           6.6463   -3.5657   22.1701 C.3     1  UNL1        0.1040
      2 C           7.2331   -5.0362   24.2300 C.2     1  UNL1        0.2489
      3 O           7.8662   -6.0513   23.3251 O.2     1  UNL1       -0.2700
      4 N           6.6232   -3.7934   23.6525 N.am    1  UNL1       -0.2995
      5 H           6.2077   -3.1272   24.2465 H       1  UNL1        0.1498
      6 C           6.5107   -3.7103   31.9335 C.3     1  UNL1        0.0540
      7 C           6.7093   -4.2335   30.5418 C.ar    1  UNL1        0.0824
      8 C           7.0670   -5.6425   30.1722 C.ar    1  UNL1        0.0552
      9 C           7.1638   -5.7194   28.6773 C.ar    1  UNL1        0.1650
     10 N           7.4847   -6.8532   27.7493 N.ar    1  UNL1       -0.2248
     11 C           7.5078   -6.6255   26.2669 C.ar    1  UNL1        0.1066
     12 C           7.2100   -5.2639   25.7125 C.ar    1  UNL1        0.0917
     13 C           6.8891   -4.1300   26.6406 C.ar    1  UNL1        0.1081
     14 N           6.8661   -4.3577   28.1230 N.ar    1  UNL1       -0.2108
     15 N           6.5852   -3.4394   29.2753 N.ar    1  UNL1       -0.1680
     16 C           5.3610   -3.5197   21.3982 C.3     1  UNL1        0.0606
     17 C           4.6377   -3.0621   22.6300 C.3     1  UNL1        0.0175
     18 C           6.0843   -3.9772   20.1664 C.3     1  UNL1        0.0175
     19 N           4.0756   -3.4736   20.6264 N.3     1  UNL1       -0.2905
     20 H           3.3359   -3.2694   21.2983 H       1  UNL1        0.1237
     21 C           3.9142   -2.5012   19.4957 C.3     1  UNL1        0.1551
     22 C           3.1958   -1.2035   19.7194 C.2     1  UNL1        0.2425
     23 O           1.9614   -1.1666   20.5708 O.2     1  UNL1       -0.2733
     24 N           3.7118    0.0573   19.0916 N.am    1  UNL1       -0.2674
     25 C           3.1031    1.4217   19.2248 C.3     1  UNL1        0.0945
     26 C           3.9422    2.3828   18.4360 C.3     1  UNL1        0.0244
     27 C           5.0697    1.6123   17.8153 C.3     1  UNL1        0.0373
     28 C           4.9273    0.1750   18.2205 C.3     1  UNL1        0.1672
     29 C           5.8401   -0.9473   17.8242 C.1     1  UNL1        0.0926
     30 N           6.7528   -2.0697   17.4279 N.1     1  UNL1       -0.1942
@<TRIPOS>BOND
     1     6     7    1
     2     7     8   ar
     3     8     9   ar
     4     9    10   ar
     5    10    11   ar
     6    11    12   ar
     7    12     2    1
     8     2     3    2
     9     2     4   am
    10     4     1    1
    11     1    16    1
    12    16    17    1
    13    16    18    1
    14    16    19    1
    15    19    21    1
    16    21    22    1
    17    22    23    2
    18    22    24   am
    19    24    25    1
    20    25    26    1
    21    26    27    1
    22    27    28    1
    23    28    29    1
    24    29    30    3
    25    12    13   ar
    26    13    14   ar
    27    14    15   ar
    28    15     7   ar
    29    14     9   ar
    30    28    24    1
    31     4     5    1
    32    19    20    1
@<TRIPOS>MOLECULE
*****
 30 32 0 0 0
SMALL
GASTEIGER

@<TRIPOS>ATOM
      1 C           0.8768    3.5231   18.6001 C.3     1  UNL1        0.1040
      2 C          -1.5191    3.7272   19.5841 C.2     1  UNL1        0.2489
      3 O          -2.0466    4.0833   18.2258 O.2     1  UNL1       -0.2700
      4 N          -0.0575    3.4471   19.7713 N.am    1  UNL1       -0.2995
      5 H           0.2887    3.2133   20.6628 H       1  UNL1        0.1498
      6 C          -4.2815    4.1820   26.9179 C.3     1  UNL1        0.0540
      7 C          -4.0190    4.0038   25.4519 C.ar    1  UNL1        0.0824
      8 C          -5.0084    3.5261   24.4307 C.ar    1  UNL1        0.0552
      9 C          -4.3218    3.4990   23.0973 C.ar    1  UNL1        0.1650
     10 N          -4.8014    3.1142   21.7291 N.ar    1  UNL1       -0.2248
     11 C          -3.8671    3.1903   20.5581 C.ar    1  UNL1        0.1066
     12 C          -2.4534    3.6511   20.7552 C.ar    1  UNL1        0.0917
     13 C          -1.9738    4.0359   22.1234 C.ar    1  UNL1        0.1081
     14 N          -2.9081    3.9599   23.2944 N.ar    1  UNL1       -0.2108
     15 N          -2.7209    4.2718   24.7496 N.ar    1  UNL1       -0.1680
     16 C           1.9545    2.4934   18.4323 C.3     1  UNL1        0.0606
     17 C           2.9913    3.5772   18.4404 C.3     1  UNL1        0.0175
     18 C           0.9176    1.4095   18.4243 C.3     1  UNL1        0.0175
     19 N           3.0321    1.4636   18.2645 N.3     1  UNL1       -0.2905
     20 H           3.6435    1.5421   19.0772 H       1  UNL1        0.1237
     21 C           2.6703    0.0138   18.1333 C.3     1  UNL1        0.1551
     22 C           3.6932   -0.9743   17.6565 C.2     1  UNL1        0.2425
     23 O           4.1012   -0.9941   16.2132 O.2     1  UNL1       -0.2733
     24 N           4.3082   -1.9426   18.6231 N.am    1  UNL1       -0.2674
     25 C           5.3380   -2.9825   18.2944 C.3     1  UNL1        0.0945
     26 C           5.6676   -3.7237   19.5562 C.3     1  UNL1        0.0244
     27 C           4.8414   -3.1417   20.6648 C.3     1  UNL1        0.0373
     28 C           4.0013   -2.0410   20.0881 C.3     1  UNL1        0.1672
     29 C           3.0256   -1.1884   20.8437 C.1     1  UNL1        0.0926
     30 N           2.0499   -0.3357   21.5994 N.1     1  UNL1       -0.1942
@<TRIPOS>BOND
     1     6     7    1
     2     7     8   ar
     3     8     9   ar
     4     9    10   ar
     5    10    11   ar
     6    11    12   ar
     7    12     2    1
     8     2     3    2
     9     2     4   am
    10     4     1    1
    11     1    16    1
    12    16    17    1
    13    16    18    1
    14    16    19    1
    15    19    21    1
    16    21    22    1
    17    22    23    2
    18    22    24   am
    19    24    25    1
    20    25    26    1
    21    26    27    1
    22    27    28    1
    23    28    29    1
    24    29    30    3
    25    12    13   ar
    26    13    14   ar
    27    14    15   ar
    28    15     7   ar
    29    14     9   ar
    30    28    24    1
    31     4     5    1
    32    19    20    1
@<TRIPOS>MOLECULE
*****
 30 32 0 0 0
SMALL
GASTEIGER

@<TRIPOS>ATOM
      1 C          -8.3272  -16.3630   24.2771 C.3     1  UNL1        0.1040
      2 C          -5.7808  -16.7121   23.8979 C.2     1  UNL1        0.2489
      3 O          -5.4894  -15.9611   25.1633 O.2     1  UNL1       -0.2700
      4 N          -7.1996  -16.9130   23.4548 N.am    1  UNL1       -0.2995
      5 H          -7.3908  -17.4059   22.6242 H       1  UNL1        0.1498
      6 C           0.8613  -17.1136   19.7331 C.3     1  UNL1        0.0540
      7 C          -0.4271  -17.3188   20.4733 C.ar    1  UNL1        0.0824
      8 C          -1.1655  -18.6167   20.6151 C.ar    1  UNL1        0.0552
      9 C          -2.3981  -18.3621   21.4311 C.ar    1  UNL1        0.1650
     10 N          -3.5022  -19.2675   21.8908 N.ar    1  UNL1       -0.2248
     11 C          -4.6297  -18.7174   22.7131 C.ar    1  UNL1        0.1066
     12 C          -4.6532  -17.2621   23.0756 C.ar    1  UNL1        0.0917
     13 C          -3.5491  -16.3568   22.6158 C.ar    1  UNL1        0.1081
     14 N          -2.4216  -16.9068   21.7936 N.ar    1  UNL1       -0.2108
     15 N          -1.2035  -16.2620   21.2016 N.ar    1  UNL1       -0.1680
     16 C          -9.6583  -17.0544   24.2824 C.3     1  UNL1        0.0606
     17 C         -10.0286  -16.3513   23.0102 C.3     1  UNL1        0.0175
     18 C          -9.2880  -17.7575   25.5546 C.3     1  UNL1        0.0175
     19 N         -10.9894  -17.7458   24.2877 N.3     1  UNL1       -0.2905
     20 H         -11.6449  -17.1264   23.8111 H       1  UNL1        0.1237
     21 C         -11.1345  -19.0985   23.6559 C.3     1  UNL1        0.1551
     22 C          -9.9734  -19.7187   22.9365 C.2     1  UNL1        0.2425
     23 O          -8.9318  -20.4755   23.7061 O.2     1  UNL1       -0.2733
     24 N          -9.8540  -19.5820   21.4475 N.am    1  UNL1       -0.2674
     25 C          -8.7551  -20.1448   20.5958 C.3     1  UNL1        0.0945
     26 C          -9.0345  -19.7692   19.1707 C.3     1  UNL1        0.0244
     27 C         -10.3062  -18.9742   19.1417 C.3     1  UNL1        0.0373
     28 C         -10.8127  -18.8585   20.5489 C.3     1  UNL1        0.1672
     29 C         -12.0590  -18.1447   20.9814 C.1     1  UNL1        0.0926
     30 N         -13.3053  -17.4308   21.4139 N.1     1  UNL1       -0.1942
@<TRIPOS>BOND
     1     6     7    1
     2     7     8   ar
     3     8     9   ar
     4     9    10   ar
     5    10    11   ar
     6    11    12   ar
     7    12     2    1
     8     2     3    2
     9     2     4   am
    10     4     1    1
    11     1    16    1
    12    16    17    1
    13    16    18    1
    14    16    19    1
    15    19    21    1
    16    21    22    1
    17    22    23    2
    18    22    24   am
    19    24    25    1
    20    25    26    1
    21    26    27    1
    22    27    28    1
    23    28    29    1
    24    29    30    3
    25    12    13   ar
    26    13    14   ar
    27    14    15   ar
    28    15     7   ar
    29    14     9   ar
    30    28    24    1
    31     4     5    1
    32    19    20    1
@<TRIPOS>MOLECULE
*****
 30 32 0 0 0
SMALL
GASTEIGER

@<TRIPOS>ATOM
      1 C           7.2655   -4.6044   23.2440 C.3     1  UNL1        0.1040
      2 C           6.8861   -3.4301   20.9577 C.2     1  UNL1        0.2489
      3 O           8.2812   -3.7909   20.5409 O.2     1  UNL1       -0.2700
      4 N           6.3783   -3.8369   22.3092 N.am    1  UNL1       -0.2995
      5 H           5.4627   -3.6001   22.5827 H       1  UNL1        0.1498
      6 C           1.0722    1.1316   18.3096 C.3     1  UNL1        0.0540
      7 C           2.2586    0.2427   18.5382 C.ar    1  UNL1        0.0824
      8 C           3.1829   -0.2836   17.4806 C.ar    1  UNL1        0.0552
      9 C           4.2246   -1.1276   18.1533 C.ar    1  UNL1        0.1650
     10 N           5.3923   -1.8997   17.6146 N.ar    1  UNL1       -0.2248
     11 C           6.2794   -2.6672   18.5494 C.ar    1  UNL1        0.1066
     12 C           5.9989   -2.6626   20.0229 C.ar    1  UNL1        0.0917
     13 C           4.8312   -1.8905   20.5616 C.ar    1  UNL1        0.1081
     14 N           3.9440   -1.1230   19.6269 N.ar    1  UNL1       -0.2108
     15 N           2.7290   -0.2761   19.8647 N.ar    1  UNL1       -0.1680
     16 C           6.9364   -4.6702   24.7059 C.3     1  UNL1        0.0606
     17 C           6.1737   -3.3836   24.5920 C.3     1  UNL1        0.0175
     18 C           7.6991   -5.9567   24.8198 C.3     1  UNL1        0.0175
     19 N           6.6073   -4.7359   26.1678 N.3     1  UNL1       -0.2905
     20 H           6.4740   -5.7211   26.3956 H       1  UNL1        0.1237
     21 C           7.5684   -4.1840   27.1786 C.3     1  UNL1        0.1551
     22 C           7.0616   -3.3520   28.3192 C.2     1  UNL1        0.2425
     23 O           6.6555   -1.9270   28.0858 O.2     1  UNL1       -0.2733
     24 N           6.9610   -3.9450   29.6934 N.am    1  UNL1       -0.2674
     25 C           6.4755   -3.2394   30.9248 C.3     1  UNL1        0.0945
     26 C           6.5426   -4.2061   32.0698 C.3     1  UNL1        0.0244
     27 C           7.0697   -5.5091   31.5461 C.3     1  UNL1        0.0373
     28 C           7.3283   -5.3478   30.0773 C.3     1  UNL1        0.1672
     29 C           7.8606   -6.4038   29.1546 C.1     1  UNL1        0.0926
     30 N           8.3930   -7.4597   28.2318 N.1     1  UNL1       -0.1942
@<TRIPOS>BOND
     1     6     7    1
     2     7     8   ar
     3     8     9   ar
     4     9    10   ar
     5    10    11   ar
     6    11    12   ar
     7    12     2    1
     8     2     3    2
     9     2     4   am
    10     4     1    1
    11     1    16    1
    12    16    17    1
    13    16    18    1
    14    16    19    1
    15    19    21    1
    16    21    22    1
    17    22    23    2
    18    22    24   am
    19    24    25    1
    20    25    26    1
    21    26    27    1
    22    27    28    1
    23    28    29    1
    24    29    30    3
    25    12    13   ar
    26    13    14   ar
    27    14    15   ar
    28    15     7   ar
    29    14     9   ar
    30    28    24    1
    31     4     5    1
    32    19    20    1
