@<TRIPOS>MOLECULE
*****
 49 52 0 0 0
SMALL
GASTEIGER

@<TRIPOS>ATOM
      1 C           9.4669   -0.7533   31.7023 C.3     1  UNL1        0.0523
      2 C           8.1246   -1.4141   31.8101 C.ar    1  UNL1        0.0650
      3 C           6.8765   -0.5822   31.8049 C.ar    1  UNL1        0.0489
      4 C           5.5342   -1.2430   31.9128 C.ar    1  UNL1        0.1325
      5 N           5.4400   -2.7357   32.0257 N.ar    1  UNL1       -0.1991
      6 C           6.6881   -3.5676   32.0308 C.ar    1  UNL1        0.2180
      7 N           8.0304   -2.9069   31.9230 N.ar    1  UNL1       -0.2181
      8 N           6.5940   -5.0605   32.1438 N.pl3   1  UNL1       -0.2977
      9 H           5.7783   -5.4763   32.5057 H       1  UNL1        0.1500
     10 C           7.7426   -5.9197   31.7054 C.3     1  UNL1        0.1395
     11 C           7.9153   -6.2578   30.2542 C.ar    1  UNL1        0.1206
     12 C           7.0095   -5.8335   29.1363 C.ar    1  UNL1        0.1149
     13 N           7.5584   -6.3929   27.8573 N.ar    1  UNL1       -0.2305
     14 N           8.8035   -7.1628   28.1847 N.ar    1  UNL1       -0.0641
     15 N           9.0240   -7.0793   29.6661 N.ar    1  UNL1       -0.1314
     16 C           6.9663   -6.2139   26.4908 C.3     1  UNL1        0.1307
     17 C           7.6384   -6.8235   25.2964 C.3     1  UNL1        0.0435
     18 C           8.2986   -5.9434   24.2768 C.3     1  UNL1        0.0706
     19 N           7.5054   -5.4082   23.1218 N.3     1  UNL1       -0.2974
     20 H           6.5250   -5.4299   23.4026 H       1  UNL1        0.1232
     21 C           7.7762   -4.0277   22.6015 C.3     1  UNL1        0.0700
     22 C           7.8862   -3.7911   21.1243 C.3     1  UNL1        0.0341
     23 C           6.6601   -3.8495   20.2621 C.3     1  UNL1        0.0700
     24 N           5.3182   -4.1025   20.8827 N.3     1  UNL1       -0.2985
     25 H           5.4910   -4.4829   21.8132 H       1  UNL1        0.1232
     26 C           4.3446   -2.9738   21.0503 C.3     1  UNL1        0.0540
     27 C           3.5281   -2.5078   19.8814 C.3     1  UNL1        0.0157
     28 C           2.5545   -1.3791   20.0490 C.3     1  UNL1        0.0014
     29 C           2.3973   -0.7165   21.3854 C.3     1  UNL1        0.0001
     30 C           3.2138   -1.1824   22.5544 C.3     1  UNL1        0.0014
     31 C           4.1874   -2.3112   22.3867 C.3     1  UNL1        0.0157
     32 N           4.2861   -0.4109   31.9076 N.pl3   1  UNL1       -0.3195
     33 H           3.7193   -0.3786   31.1033 H       1  UNL1        0.1481
     34 C           3.9016    0.3719   33.1280 C.3     1  UNL1        0.0738
     35 C           4.6222    0.1432   34.4236 C.3     1  UNL1        0.0411
     36 C           4.2377    0.9261   35.6440 C.3     1  UNL1        0.0951
     37 N           3.1326    1.9376   35.5687 N.am    1  UNL1       -0.2794
     38 C           2.7481    2.7205   36.7891 C.2     1  UNL1        0.2270
     39 O           1.6430    3.7320   36.7139 O.2     1  UNL1       -0.2748
     40 C           2.4121    2.1663   34.2732 C.3     1  UNL1        0.0951
     41 C           2.7966    1.3834   33.0528 C.3     1  UNL1        0.0411
     42 C           3.4687    2.4917   38.0847 C.3     1  UNL1        0.1023
     43 C           3.4462    1.1360   38.7262 C.3     1  UNL1        0.0785
     44 N           2.1649    0.3590   38.7930 N.3     1  UNL1       -0.2924
     45 H           2.4191   -0.6288   38.7900 H       1  UNL1        0.1236
     46 C           1.2247    0.5606   39.9442 C.3     1  UNL1        0.1110
     47 C           0.5215    1.8743   40.1170 C.2     1  UNL1        0.0663
     48 O           0.5616    2.5779   41.4412 O.co2   1  UNL1       -0.5477
     49 O          -0.2218    2.4843   38.9657 O.co2   1  UNL1       -0.5477
@<TRIPOS>UNITY_ATOM_ATTR
48 1
charge -1
@<TRIPOS>BOND
     1     1     2    1
     2     2     3   ar
     3     3     4   ar
     4     4    32    1
     5    32    34    1
     6    34    35    1
     7    35    36    1
     8    36    37    1
     9    37    38   am
    10    38    39    2
    11    38    42    1
    12    42    43    1
    13    43    44    1
    14    44    46    1
    15    46    47    1
    16    47    48   ar
    17    47    49   ar
    18    37    40    1
    19    40    41    1
    20     4     5   ar
    21     5     6   ar
    22     6     8    1
    23     8    10    1
    24    10    11    1
    25    11    12   ar
    26    12    13   ar
    27    13    16    1
    28    16    17    1
    29    17    18    1
    30    18    19    1
    31    19    21    1
    32    21    22    1
    33    22    23    1
    34    23    24    1
    35    24    26    1
    36    26    27    1
    37    27    28    1
    38    28    29    1
    39    29    30    1
    40    30    31    1
    41    13    14   ar
    42    14    15   ar
    43     6     7   ar
    44     7     2   ar
    45    41    34    1
    46    15    11   ar
    47    31    26    1
    48    32    33    1
    49    44    45    1
    50     8     9    1
    51    19    20    1
    52    24    25    1
@<TRIPOS>MOLECULE
*****
 49 52 0 0 0
SMALL
GASTEIGER

@<TRIPOS>ATOM
      1 C           7.0450    0.8209   16.7517 C.3     1  UNL1        0.0523
      2 C           5.7597    0.2779   17.3024 C.ar    1  UNL1        0.0650
      3 C           4.6521    1.2147   17.6840 C.ar    1  UNL1        0.0489
      4 C           3.3668    0.6717   18.2346 C.ar    1  UNL1        0.1325
      5 N           3.1891   -0.8081   18.4037 N.ar    1  UNL1       -0.1991
      6 C           4.2967   -1.7449   18.0221 C.ar    1  UNL1        0.2180
      7 N           5.5820   -1.2019   17.4714 N.ar    1  UNL1       -0.2181
      8 N           4.1190   -3.2247   18.1912 N.pl3   1  UNL1       -0.2977
      9 H           4.2381   -3.8260   17.4208 H       1  UNL1        0.1500
     10 C           3.7599   -3.7884   19.5340 C.3     1  UNL1        0.1395
     11 C           4.8099   -3.9204   20.5972 C.ar    1  UNL1        0.1206
     12 C           4.6032   -3.7228   22.0697 C.ar    1  UNL1        0.1149
     13 N           5.9164   -3.9534   22.7571 N.ar    1  UNL1       -0.2305
     14 N           6.9346   -4.2933   21.7094 N.ar    1  UNL1       -0.0641
     15 N           6.2507   -4.2729   20.3745 N.ar    1  UNL1       -0.1314
     16 C           6.1673   -3.8603   24.2330 C.3     1  UNL1        0.1307
     17 C           7.1457   -4.7899   24.8876 C.3     1  UNL1        0.0435
     18 C           7.2125   -4.8765   26.3836 C.3     1  UNL1        0.0706
     19 N           6.0416   -4.4399   27.2131 N.3     1  UNL1       -0.2974
     20 H           5.9858   -5.0813   28.0042 H       1  UNL1        0.1232
     21 C           5.9987   -3.0509   27.7777 C.3     1  UNL1        0.0700
     22 C           7.1042   -2.0835   27.4744 C.3     1  UNL1        0.0341
     23 C           6.7948   -0.7762   26.8072 C.3     1  UNL1        0.0700
     24 N           5.3774   -0.4277   26.4613 N.3     1  UNL1       -0.2985
     25 H           5.2085    0.5112   26.8224 H       1  UNL1        0.1232
     26 C           4.9335   -0.4268   25.0285 C.3     1  UNL1        0.0540
     27 C           5.9124   -0.0987   23.9403 C.3     1  UNL1        0.0157
     28 C           5.4685   -0.0979   22.5075 C.3     1  UNL1        0.0014
     29 C           4.0458   -0.4251   22.1629 C.3     1  UNL1        0.0001
     30 C           3.0668   -0.7532   23.2511 C.3     1  UNL1        0.0014
     31 C           3.5108   -0.7541   24.6839 C.3     1  UNL1        0.0157
     32 N           2.2592    1.6086   18.6162 N.pl3   1  UNL1       -0.3195
     33 H           1.7498    2.0791   17.9174 H       1  UNL1        0.1481
     34 C           1.9279    1.8286   20.0626 C.3     1  UNL1        0.0738
     35 C           0.7117    1.1849   20.6597 C.3     1  UNL1        0.0411
     36 C           0.3803    1.4048   22.1060 C.3     1  UNL1        0.0951
     37 N           1.2652    2.2685   22.9552 N.am    1  UNL1       -0.2794
     38 C           0.9339    2.4885   24.4015 C.2     1  UNL1        0.2270
     39 O           1.8187    3.3521   25.2507 O.2     1  UNL1       -0.2748
     40 C           2.4814    2.9121   22.3581 C.3     1  UNL1        0.0951
     41 C           2.8127    2.6922   20.9118 C.3     1  UNL1        0.0411
     42 C          -0.2824    1.8448   24.9986 C.3     1  UNL1        0.1023
     43 C          -0.2329    1.2986   26.3948 C.3     1  UNL1        0.0785
     44 N           1.0536    0.7558   26.9426 N.3     1  UNL1       -0.2924
     45 H           1.8014    1.3452   26.5768 H       1  UNL1        0.1236
     46 C           1.2589    0.6665   28.4258 C.3     1  UNL1        0.1110
     47 C           2.0745   -0.4516   29.0041 C.2     1  UNL1        0.0663
     48 O           2.0394   -0.7203   30.4795 O.co2   1  UNL1       -0.5477
     49 O           2.9253   -1.3011   28.1072 O.co2   1  UNL1       -0.5477
@<TRIPOS>UNITY_ATOM_ATTR
48 1
charge -1
@<TRIPOS>BOND
     1     1     2    1
     2     2     3   ar
     3     3     4   ar
     4     4    32    1
     5    32    34    1
     6    34    35    1
     7    35    36    1
     8    36    37    1
     9    37    38   am
    10    38    39    2
    11    38    42    1
    12    42    43    1
    13    43    44    1
    14    44    46    1
    15    46    47    1
    16    47    48   ar
    17    47    49   ar
    18    37    40    1
    19    40    41    1
    20     4     5   ar
    21     5     6   ar
    22     6     8    1
    23     8    10    1
    24    10    11    1
    25    11    12   ar
    26    12    13   ar
    27    13    16    1
    28    16    17    1
    29    17    18    1
    30    18    19    1
    31    19    21    1
    32    21    22    1
    33    22    23    1
    34    23    24    1
    35    24    26    1
    36    26    27    1
    37    27    28    1
    38    28    29    1
    39    29    30    1
    40    30    31    1
    41    13    14   ar
    42    14    15   ar
    43     6     7   ar
    44     7     2   ar
    45    41    34    1
    46    15    11   ar
    47    31    26    1
    48    32    33    1
    49    44    45    1
    50     8     9    1
    51    19    20    1
    52    24    25    1
@<TRIPOS>MOLECULE
*****
 49 52 0 0 0
SMALL
GASTEIGER

@<TRIPOS>ATOM
      1 C           6.9195   -4.6138   31.7187 C.3     1  UNL1        0.0523
      2 C           6.5699   -3.9699   30.4099 C.ar    1  UNL1        0.0650
      3 C           6.1363   -2.5345   30.3724 C.ar    1  UNL1        0.0489
      4 C           5.7866   -1.8905   29.0635 C.ar    1  UNL1        0.1325
      5 N           5.8706   -2.6821   27.7921 N.ar    1  UNL1       -0.1991
      6 C           6.3041   -4.1175   27.8296 C.ar    1  UNL1        0.2180
      7 N           6.6538   -4.7614   29.1385 N.ar    1  UNL1       -0.2181
      8 N           6.3881   -4.9091   26.5582 N.pl3   1  UNL1       -0.2977
      9 H           5.5884   -5.3641   26.2079 H       1  UNL1        0.1500
     10 C           7.6905   -5.0075   25.8206 C.3     1  UNL1        0.1395
     11 C           7.7745   -4.5766   24.3863 C.ar    1  UNL1        0.1206
     12 C           8.2838   -3.2554   23.8910 C.ar    1  UNL1        0.1149
     13 N           8.1880   -3.2534   22.3940 N.ar    1  UNL1       -0.2305
     14 N           7.6196   -4.5734   21.9642 N.ar    1  UNL1       -0.0641
     15 N           7.3640   -5.3911   23.1954 N.ar    1  UNL1       -0.1314
     16 C           8.5901   -2.1290   21.4863 C.3     1  UNL1        0.1307
     17 C           7.5659   -1.1353   21.0242 C.3     1  UNL1        0.0435
     18 C           6.7728   -1.3997   19.7788 C.3     1  UNL1        0.0706
     19 N           6.5855   -2.8066   19.2935 N.3     1  UNL1       -0.2974
     20 H           6.5297   -3.3989   20.1220 H       1  UNL1        0.1232
     21 C           5.4063   -3.1526   18.4335 C.3     1  UNL1        0.0700
     22 C           4.5736   -4.3588   18.7526 C.3     1  UNL1        0.0341
     23 C           4.0458   -4.5595   20.1422 C.3     1  UNL1        0.0700
     24 N           4.8334   -4.0708   21.3215 N.3     1  UNL1       -0.2985
     25 H           5.7586   -3.8190   20.9738 H       1  UNL1        0.1232
     26 C           4.3387   -2.9025   22.1217 C.3     1  UNL1        0.0540
     27 C           4.6976   -2.7817   23.5732 C.3     1  UNL1        0.0157
     28 C           4.2029   -1.6134   24.3733 C.3     1  UNL1        0.0014
     29 C           3.3493   -0.5659   23.7220 C.3     1  UNL1        0.0001
     30 C           2.9904   -0.6866   22.2706 C.3     1  UNL1        0.0014
     31 C           3.4852   -1.8550   21.4704 C.3     1  UNL1        0.0157
     32 N           5.3530   -0.4550   29.0261 N.pl3   1  UNL1       -0.3195
     33 H           5.9943    0.2588   29.2461 H       1  UNL1        0.1481
     34 C           3.9423   -0.1072   28.6533 C.3     1  UNL1        0.0738
     35 C           3.6629    0.6210   27.3720 C.3     1  UNL1        0.0411
     36 C           2.2522    0.9689   26.9993 C.3     1  UNL1        0.0951
     37 N           1.1209    0.5885   27.9079 N.am    1  UNL1       -0.2794
     38 C          -0.2898    0.9364   27.5352 C.2     1  UNL1        0.2270
     39 O          -1.4211    0.5560   28.4437 O.2     1  UNL1       -0.2748
     40 C           1.4003   -0.1397   29.1891 C.3     1  UNL1        0.0951
     41 C           2.8110   -0.4875   29.5619 C.3     1  UNL1        0.0411
     42 C          -0.5692    1.6646   26.2538 C.3     1  UNL1        0.1023
     43 C          -1.0805    3.0743   26.2885 C.3     1  UNL1        0.0785
     44 N          -2.5271    3.3404   26.5823 N.3     1  UNL1       -0.2924
     45 H          -2.6881    3.0577   27.5491 H       1  UNL1        0.1236
     46 C          -3.0785    4.7281   26.4395 C.3     1  UNL1        0.1110
     47 C          -2.8390    5.7448   27.5159 C.2     1  UNL1        0.0663
     48 O          -4.0004    6.3546   28.2435 O.co2   1  UNL1       -0.5477
     49 O          -1.4380    6.1518   27.8648 O.co2   1  UNL1       -0.5477
@<TRIPOS>UNITY_ATOM_ATTR
48 1
charge -1
@<TRIPOS>BOND
     1     1     2    1
     2     2     3   ar
     3     3     4   ar
     4     4    32    1
     5    32    34    1
     6    34    35    1
     7    35    36    1
     8    36    37    1
     9    37    38   am
    10    38    39    2
    11    38    42    1
    12    42    43    1
    13    43    44    1
    14    44    46    1
    15    46    47    1
    16    47    48   ar
    17    47    49   ar
    18    37    40    1
    19    40    41    1
    20     4     5   ar
    21     5     6   ar
    22     6     8    1
    23     8    10    1
    24    10    11    1
    25    11    12   ar
    26    12    13   ar
    27    13    16    1
    28    16    17    1
    29    17    18    1
    30    18    19    1
    31    19    21    1
    32    21    22    1
    33    22    23    1
    34    23    24    1
    35    24    26    1
    36    26    27    1
    37    27    28    1
    38    28    29    1
    39    29    30    1
    40    30    31    1
    41    13    14   ar
    42    14    15   ar
    43     6     7   ar
    44     7     2   ar
    45    41    34    1
    46    15    11   ar
    47    31    26    1
    48    32    33    1
    49    44    45    1
    50     8     9    1
    51    19    20    1
    52    24    25    1
@<TRIPOS>MOLECULE
*****
 49 52 0 0 0
SMALL
GASTEIGER

@<TRIPOS>ATOM
      1 C           4.2671   -2.3256   33.7417 C.3     1  UNL1        0.0523
      2 C           4.7662   -2.0230   32.3599 C.ar    1  UNL1        0.0650
      3 C           6.0456   -2.6366   31.8735 C.ar    1  UNL1        0.0489
      4 C           6.5447   -2.3340   30.4917 C.ar    1  UNL1        0.1325
      5 N           5.7643   -1.4180   29.5963 N.ar    1  UNL1       -0.1991
      6 C           4.4849   -0.8044   30.0827 C.ar    1  UNL1        0.2180
      7 N           3.9858   -1.1070   31.4645 N.ar    1  UNL1       -0.2181
      8 N           3.7045    0.1117   29.1873 N.pl3   1  UNL1       -0.2977
      9 H           3.7410    1.0855   29.3272 H       1  UNL1        0.1500
     10 C           2.8685   -0.4559   28.0787 C.3     1  UNL1        0.1395
     11 C           3.2873   -0.2660   26.6509 C.ar    1  UNL1        0.1206
     12 C           2.4503    0.3312   25.5587 C.ar    1  UNL1        0.1149
     13 N           3.2622    0.3264   24.2973 N.ar    1  UNL1       -0.2305
     14 N           4.6009   -0.2738   24.6101 N.ar    1  UNL1       -0.0641
     15 N           4.6164   -0.6399   26.0646 N.ar    1  UNL1       -0.1314
     16 C           2.8141    0.8328   22.9584 C.3     1  UNL1        0.1307
     17 C           1.3627    1.1214   22.7131 C.3     1  UNL1        0.0435
     18 C           0.9040    1.5559   21.3527 C.3     1  UNL1        0.0706
     19 N           1.9106    1.8537   20.2814 N.3     1  UNL1       -0.2974
     20 H           2.8070    1.4965   20.6121 H       1  UNL1        0.1232
     21 C           1.7137    1.3133   18.8960 C.3     1  UNL1        0.0700
     22 C           2.8956    0.8515   18.0961 C.3     1  UNL1        0.0341
     23 C           4.1643    0.4567   18.7921 C.3     1  UNL1        0.0700
     24 N           4.1062   -0.2373   20.1206 N.3     1  UNL1       -0.2985
     25 H           3.2643    0.0960   20.5904 H       1  UNL1        0.1232
     26 C           4.0726   -1.7356   20.1833 C.3     1  UNL1        0.0540
     27 C           3.5970   -2.5253   19.0000 C.3     1  UNL1        0.0157
     28 C           3.5634   -4.0236   19.0627 C.3     1  UNL1        0.0014
     29 C           4.0054   -4.7322   20.3088 C.3     1  UNL1        0.0001
     30 C           4.4810   -3.9426   21.4921 C.3     1  UNL1        0.0014
     31 C           4.5146   -2.4442   21.4294 C.3     1  UNL1        0.0157
     32 N           7.8242   -2.9476   30.0054 N.pl3   1  UNL1       -0.3195
     33 H           8.6798   -2.4835   30.1525 H       1  UNL1        0.1481
     34 C           7.7999   -4.2684   29.2947 C.3     1  UNL1        0.0738
     35 C           8.5217   -5.4471   29.8777 C.3     1  UNL1        0.0411
     36 C           8.4974   -6.7679   29.1671 C.3     1  UNL1        0.0951
     37 N           7.7514   -6.9099   27.8735 N.am    1  UNL1       -0.2794
     38 C           7.7271   -8.2307   27.1629 C.2     1  UNL1        0.2270
     39 O           6.9811   -8.3728   25.8694 O.2     1  UNL1       -0.2748
     40 C           7.0296   -5.7313   27.2906 C.3     1  UNL1        0.0951
     41 C           7.0539   -4.4105   28.0012 C.3     1  UNL1        0.0411
     42 C           8.4489   -9.4094   27.7458 C.3     1  UNL1        0.1023
     43 C           7.7044  -10.6810   28.0265 C.3     1  UNL1        0.0785
     44 N           6.2344  -10.7680   27.7412 N.3     1  UNL1       -0.2924
     45 H           6.1368  -10.8907   26.7334 H       1  UNL1        0.1236
     46 C           5.4065  -11.8374   28.3899 C.3     1  UNL1        0.1110
     47 C           4.9562  -13.0249   27.5917 C.2     1  UNL1        0.0663
     48 O           4.5009  -14.2707   28.2924 O.co2   1  UNL1       -0.5477
     49 O           4.9611  -12.9667   26.0929 O.co2   1  UNL1       -0.5477
@<TRIPOS>UNITY_ATOM_ATTR
48 1
charge -1
@<TRIPOS>BOND
     1     1     2    1
     2     2     3   ar
     3     3     4   ar
     4     4    32    1
     5    32    34    1
     6    34    35    1
     7    35    36    1
     8    36    37    1
     9    37    38   am
    10    38    39    2
    11    38    42    1
    12    42    43    1
    13    43    44    1
    14    44    46    1
    15    46    47    1
    16    47    48   ar
    17    47    49   ar
    18    37    40    1
    19    40    41    1
    20     4     5   ar
    21     5     6   ar
    22     6     8    1
    23     8    10    1
    24    10    11    1
    25    11    12   ar
    26    12    13   ar
    27    13    16    1
    28    16    17    1
    29    17    18    1
    30    18    19    1
    31    19    21    1
    32    21    22    1
    33    22    23    1
    34    23    24    1
    35    24    26    1
    36    26    27    1
    37    27    28    1
    38    28    29    1
    39    29    30    1
    40    30    31    1
    41    13    14   ar
    42    14    15   ar
    43     6     7   ar
    44     7     2   ar
    45    41    34    1
    46    15    11   ar
    47    31    26    1
    48    32    33    1
    49    44    45    1
    50     8     9    1
    51    19    20    1
    52    24    25    1
@<TRIPOS>MOLECULE
*****
 49 52 0 0 0
SMALL
GASTEIGER

@<TRIPOS>ATOM
      1 C           4.0101   -1.3409   24.4590 C.3     1  UNL1        0.0523
      2 C           4.7009   -2.3088   23.5447 C.ar    1  UNL1        0.0650
      3 C           6.0779   -2.8021   23.8769 C.ar    1  UNL1        0.0489
      4 C           6.7687   -3.7700   22.9626 C.ar    1  UNL1        0.1325
      5 N           6.0824   -4.2446   21.7161 N.ar    1  UNL1       -0.1991
      6 C           4.7054   -3.7512   21.3839 C.ar    1  UNL1        0.2180
      7 N           4.0147   -2.7833   22.2982 N.ar    1  UNL1       -0.2181
      8 N           4.0191   -4.2258   20.1373 N.pl3   1  UNL1       -0.2977
      9 H           3.7308   -5.1640   20.0609 H       1  UNL1        0.1500
     10 C           3.7722   -3.2709   19.0072 C.3     1  UNL1        0.1395
     11 C           4.8382   -2.2964   18.6022 C.ar    1  UNL1        0.1206
     12 C           5.1002   -0.9624   19.2363 C.ar    1  UNL1        0.1149
     13 N           6.2533   -0.3263   18.5180 N.ar    1  UNL1       -0.2305
     14 N           6.7038   -1.2672   17.4400 N.ar    1  UNL1       -0.0641
     15 N           5.8292   -2.4847   17.4921 N.ar    1  UNL1       -0.1314
     16 C           6.8509    1.0151   18.8239 C.3     1  UNL1        0.1307
     17 C           6.2885    2.2501   18.1848 C.3     1  UNL1        0.0435
     18 C           5.4037    3.1674   18.9757 C.3     1  UNL1        0.0706
     19 N           5.0607    4.5255   18.4393 N.3     1  UNL1       -0.2974
     20 H           5.9363    4.9524   18.1368 H       1  UNL1        0.1232
     21 C           4.0967    4.6595   17.2979 C.3     1  UNL1        0.0700
     22 C           2.7037    5.1570   17.5472 C.3     1  UNL1        0.0341
     23 C           1.7099    4.2823   18.2523 C.3     1  UNL1        0.0700
     24 N           2.0025    3.7779   19.6344 N.3     1  UNL1       -0.2985
     25 H           1.3672    4.2653   20.2663 H       1  UNL1        0.1232
     26 C           1.8795    2.3146   19.9404 C.3     1  UNL1        0.0540
     27 C           2.2011    1.8061   21.3145 C.3     1  UNL1        0.0157
     28 C           2.0780    0.3429   21.6205 C.3     1  UNL1        0.0014
     29 C           1.6334   -0.6119   20.5524 C.3     1  UNL1        0.0001
     30 C           1.3118   -0.1035   19.1784 C.3     1  UNL1        0.0014
     31 C           1.4348    1.3599   18.8724 C.3     1  UNL1        0.0157
     32 N           8.1458   -4.2634   23.2948 N.pl3   1  UNL1       -0.3195
     33 H           8.9188   -3.9577   22.7673 H       1  UNL1        0.1481
     34 C           8.3450   -5.2224   24.4308 C.3     1  UNL1        0.0738
     35 C           8.2130   -6.6984   24.1982 C.3     1  UNL1        0.0411
     36 C           8.4123   -7.6575   25.3343 C.3     1  UNL1        0.0951
     37 N           8.7436   -7.1405   26.7029 N.am    1  UNL1       -0.2794
     38 C           8.9428   -8.0995   27.8389 C.2     1  UNL1        0.2270
     39 O           9.2741   -7.5826   29.2075 O.2     1  UNL1       -0.2748
     40 C           8.8756   -5.6645   26.9354 C.3     1  UNL1        0.0951
     41 C           8.6763   -4.7055   25.7994 C.3     1  UNL1        0.0411
     42 C           8.8108   -9.5755   27.6063 C.3     1  UNL1        0.1023
     43 C           7.4918  -10.2547   27.8281 C.3     1  UNL1        0.0785
     44 N           7.4318  -11.7460   27.9768 N.3     1  UNL1       -0.2924
     45 H           8.2151  -12.0143   28.5725 H       1  UNL1        0.1236
     46 C           6.2077  -12.3936   28.5532 C.3     1  UNL1        0.1110
     47 C           5.1316  -12.9069   27.6430 C.2     1  UNL1        0.0663
     48 O           3.6902  -12.7753   28.0368 O.co2   1  UNL1       -0.5477
     49 O           5.4969  -13.5518   26.3388 O.co2   1  UNL1       -0.5477
@<TRIPOS>UNITY_ATOM_ATTR
48 1
charge -1
@<TRIPOS>BOND
     1     1     2    1
     2     2     3   ar
     3     3     4   ar
     4     4    32    1
     5    32    34    1
     6    34    35    1
     7    35    36    1
     8    36    37    1
     9    37    38   am
    10    38    39    2
    11    38    42    1
    12    42    43    1
    13    43    44    1
    14    44    46    1
    15    46    47    1
    16    47    48   ar
    17    47    49   ar
    18    37    40    1
    19    40    41    1
    20     4     5   ar
    21     5     6   ar
    22     6     8    1
    23     8    10    1
    24    10    11    1
    25    11    12   ar
    26    12    13   ar
    27    13    16    1
    28    16    17    1
    29    17    18    1
    30    18    19    1
    31    19    21    1
    32    21    22    1
    33    22    23    1
    34    23    24    1
    35    24    26    1
    36    26    27    1
    37    27    28    1
    38    28    29    1
    39    29    30    1
    40    30    31    1
    41    13    14   ar
    42    14    15   ar
    43     6     7   ar
    44     7     2   ar
    45    41    34    1
    46    15    11   ar
    47    31    26    1
    48    32    33    1
    49    44    45    1
    50     8     9    1
    51    19    20    1
    52    24    25    1
@<TRIPOS>MOLECULE
*****
 49 52 0 0 0
SMALL
GASTEIGER

@<TRIPOS>ATOM
      1 C           3.7206   -1.1219   24.1843 C.3     1  UNL1        0.0523
      2 C           4.5098   -2.1623   23.4462 C.ar    1  UNL1        0.0650
      3 C           5.8957   -2.5140   23.8995 C.ar    1  UNL1        0.0489
      4 C           6.6848   -3.5544   23.1615 C.ar    1  UNL1        0.1325
      5 N           6.0881   -4.2432   21.9701 N.ar    1  UNL1       -0.1991
      6 C           4.7022   -3.8916   21.5168 C.ar    1  UNL1        0.2180
      7 N           3.9130   -2.8511   22.2549 N.ar    1  UNL1       -0.2181
      8 N           4.1053   -4.5804   20.3254 N.pl3   1  UNL1       -0.2977
      9 H           3.9920   -5.5583   20.3278 H       1  UNL1        0.1500
     10 C           3.6811   -3.7792   19.1304 C.3     1  UNL1        0.1395
     11 C           4.4945   -2.5972   18.6927 C.ar    1  UNL1        0.1206
     12 C           4.3545   -1.1934   19.2023 C.ar    1  UNL1        0.1149
     13 N           5.3641   -0.3401   18.4932 N.ar    1  UNL1       -0.2305
     14 N           6.1280   -1.2167   17.5454 N.ar    1  UNL1       -0.0641
     15 N           5.5905   -2.6116   17.6687 N.ar    1  UNL1       -0.1314
     16 C           5.5732    1.1313   18.6962 C.3     1  UNL1        0.1307
     17 C           4.5797    2.1126   18.1483 C.3     1  UNL1        0.0435
     18 C           3.4668    2.6179   19.0178 C.3     1  UNL1        0.0706
     19 N           2.2046    3.1361   18.3949 N.3     1  UNL1       -0.2974
     20 H           2.4008    3.2745   17.4035 H       1  UNL1        0.1232
     21 C           0.9417    2.3311   18.4781 C.3     1  UNL1        0.0700
     22 C          -0.3384    2.9859   18.9055 C.3     1  UNL1        0.0341
     23 C          -0.7696    2.9241   20.3408 C.3     1  UNL1        0.0700
     24 N           0.1969    3.2825   21.4304 N.3     1  UNL1       -0.2985
     25 H           0.1928    4.2998   21.5047 H       1  UNL1        0.1232
     26 C          -0.0034    2.7463   22.8169 C.3     1  UNL1        0.0540
     27 C          -1.0517    3.3438   23.7080 C.3     1  UNL1        0.0157
     28 C          -1.2520    2.8076   25.0945 C.3     1  UNL1        0.0014
     29 C          -0.4039    1.6739   25.5899 C.3     1  UNL1        0.0001
     30 C           0.6444    1.0763   24.6989 C.3     1  UNL1        0.0014
     31 C           0.8447    1.6126   23.3123 C.3     1  UNL1        0.0157
     32 N           8.0708   -3.9060   23.6148 N.pl3   1  UNL1       -0.3195
     33 H           8.8495   -3.4633   23.2064 H       1  UNL1        0.1481
     34 C           8.2703   -4.9323   24.6905 C.3     1  UNL1        0.0738
     35 C           8.0784   -6.3879   24.3832 C.3     1  UNL1        0.0411
     36 C           8.2779   -7.4141   25.4589 C.3     1  UNL1        0.0951
     37 N           8.6693   -6.9847   26.8418 N.am    1  UNL1       -0.2794
     38 C           8.8688   -8.0110   27.9175 C.2     1  UNL1        0.2270
     39 O           9.2601   -7.5816   29.3004 O.2     1  UNL1       -0.2748
     40 C           8.8612   -5.5291   27.1491 C.3     1  UNL1        0.0951
     41 C           8.6617   -4.5029   26.0734 C.3     1  UNL1        0.0411
     42 C           8.6769   -9.4666   27.6102 C.3     1  UNL1        0.1023
     43 C           7.3004  -10.0624   27.6309 C.3     1  UNL1        0.0785
     44 N           7.1110  -11.4995   28.0166 N.3     1  UNL1       -0.2924
     45 H           7.7368  -11.6786   28.8019 H       1  UNL1        0.1236
     46 C           5.7544  -11.9946   28.4223 C.3     1  UNL1        0.1110
     47 C           5.1199  -13.1347   27.6825 C.2     1  UNL1        0.0663
     48 O           4.4658  -14.2505   28.4422 O.co2   1  UNL1       -0.5477
     49 O           5.1395  -13.1591   26.1828 O.co2   1  UNL1       -0.5477
@<TRIPOS>UNITY_ATOM_ATTR
48 1
charge -1
@<TRIPOS>BOND
     1     1     2    1
     2     2     3   ar
     3     3     4   ar
     4     4    32    1
     5    32    34    1
     6    34    35    1
     7    35    36    1
     8    36    37    1
     9    37    38   am
    10    38    39    2
    11    38    42    1
    12    42    43    1
    13    43    44    1
    14    44    46    1
    15    46    47    1
    16    47    48   ar
    17    47    49   ar
    18    37    40    1
    19    40    41    1
    20     4     5   ar
    21     5     6   ar
    22     6     8    1
    23     8    10    1
    24    10    11    1
    25    11    12   ar
    26    12    13   ar
    27    13    16    1
    28    16    17    1
    29    17    18    1
    30    18    19    1
    31    19    21    1
    32    21    22    1
    33    22    23    1
    34    23    24    1
    35    24    26    1
    36    26    27    1
    37    27    28    1
    38    28    29    1
    39    29    30    1
    40    30    31    1
    41    13    14   ar
    42    14    15   ar
    43     6     7   ar
    44     7     2   ar
    45    41    34    1
    46    15    11   ar
    47    31    26    1
    48    32    33    1
    49    44    45    1
    50     8     9    1
    51    19    20    1
    52    24    25    1
@<TRIPOS>MOLECULE
*****
 49 52 0 0 0
SMALL
GASTEIGER

@<TRIPOS>ATOM
      1 C           8.8006   -6.6624   22.8031 C.3     1  UNL1        0.0523
      2 C           8.0587   -6.1618   24.0068 C.ar    1  UNL1        0.0650
      3 C           7.3029   -4.8680   23.9376 C.ar    1  UNL1        0.0489
      4 C           6.5610   -4.3674   25.1413 C.ar    1  UNL1        0.1325
      5 N           6.5748   -5.1607   26.4143 N.ar    1  UNL1       -0.1991
      6 C           7.3305   -6.4545   26.4835 C.ar    1  UNL1        0.2180
      7 N           8.0725   -6.9551   25.2798 N.ar    1  UNL1       -0.2181
      8 N           7.3443   -7.2478   27.7565 N.pl3   1  UNL1       -0.2977
      9 H           6.8027   -8.0665   27.8323 H       1  UNL1        0.1500
     10 C           8.1833   -6.7939   28.9141 C.3     1  UNL1        0.1395
     11 C           7.6080   -5.8588   29.9362 C.ar    1  UNL1        0.1206
     12 C           7.3502   -4.3936   29.7446 C.ar    1  UNL1        0.1149
     13 N           6.7723   -3.8540   31.0194 N.ar    1  UNL1       -0.2305
     14 N           6.6730   -4.9858   31.9988 N.ar    1  UNL1       -0.0641
     15 N           7.1895   -6.2248   31.3294 N.ar    1  UNL1       -0.1314
     16 C           6.3652   -2.4324   31.2706 C.3     1  UNL1        0.1307
     17 C           6.3055   -1.9061   32.6740 C.3     1  UNL1        0.0435
     18 C           4.9793   -1.7224   33.3503 C.3     1  UNL1        0.0706
     19 N           3.7233   -1.6565   32.5329 N.3     1  UNL1       -0.2974
     20 H           2.9520   -1.8869   33.1593 H       1  UNL1        0.1232
     21 C           3.3487   -0.3828   31.8349 C.3     1  UNL1        0.0700
     22 C           3.1143   -0.3804   30.3533 C.3     1  UNL1        0.0341
     23 C           1.7146   -0.4164   29.8154 C.3     1  UNL1        0.0700
     24 N           0.8084    0.7641   30.0031 N.3     1  UNL1       -0.2985
     25 H           1.2889    1.4071   30.6324 H       1  UNL1        0.1232
     26 C           0.3683    1.5681   28.8158 C.3     1  UNL1        0.0540
     27 C           0.4470    3.0656   28.8532 C.3     1  UNL1        0.0157
     28 C           0.0070    3.8696   27.6658 C.3     1  UNL1        0.0014
     29 C          -0.5118    3.1762   26.4411 C.3     1  UNL1        0.0001
     30 C          -0.5906    1.6787   26.4036 C.3     1  UNL1        0.0014
     31 C          -0.1505    0.8747   27.5910 C.3     1  UNL1        0.0157
     32 N           5.8052   -3.0735   25.0720 N.pl3   1  UNL1       -0.3195
     33 H           5.3957   -2.6985   25.8849 H       1  UNL1        0.1481
     34 C           5.6733   -2.3511   23.7640 C.3     1  UNL1        0.0738
     35 C           4.3501   -2.3129   23.0584 C.3     1  UNL1        0.0411
     36 C           4.2183   -1.5905   21.7505 C.3     1  UNL1        0.0951
     37 N           5.4096   -0.9064   21.1481 N.am    1  UNL1       -0.2794
     38 C           5.2777   -0.1840   19.8401 C.2     1  UNL1        0.2270
     39 O           6.4689    0.5001   19.2378 O.2     1  UNL1       -0.2748
     40 C           6.7327   -0.9446   21.8537 C.3     1  UNL1        0.0951
     41 C           6.8646   -1.6670   23.1616 C.3     1  UNL1        0.0411
     42 C           3.9545   -0.1457   19.1345 C.3     1  UNL1        0.1023
     43 C           3.5799   -1.2433   18.1832 C.3     1  UNL1        0.0785
     44 N           4.3920   -2.5034   18.1347 N.3     1  UNL1       -0.2924
     45 H           5.3099   -2.2771   18.5176 H       1  UNL1        0.1236
     46 C           3.9145   -3.7315   18.8515 C.3     1  UNL1        0.1110
     47 C           4.9067   -4.7206   19.3874 C.2     1  UNL1        0.0663
     48 O           5.9517   -4.2783   20.3685 O.co2   1  UNL1       -0.5477
     49 O           4.8541   -6.1520   18.9421 O.co2   1  UNL1       -0.5477
@<TRIPOS>UNITY_ATOM_ATTR
48 1
charge -1
@<TRIPOS>BOND
     1     1     2    1
     2     2     3   ar
     3     3     4   ar
     4     4    32    1
     5    32    34    1
     6    34    35    1
     7    35    36    1
     8    36    37    1
     9    37    38   am
    10    38    39    2
    11    38    42    1
    12    42    43    1
    13    43    44    1
    14    44    46    1
    15    46    47    1
    16    47    48   ar
    17    47    49   ar
    18    37    40    1
    19    40    41    1
    20     4     5   ar
    21     5     6   ar
    22     6     8    1
    23     8    10    1
    24    10    11    1
    25    11    12   ar
    26    12    13   ar
    27    13    16    1
    28    16    17    1
    29    17    18    1
    30    18    19    1
    31    19    21    1
    32    21    22    1
    33    22    23    1
    34    23    24    1
    35    24    26    1
    36    26    27    1
    37    27    28    1
    38    28    29    1
    39    29    30    1
    40    30    31    1
    41    13    14   ar
    42    14    15   ar
    43     6     7   ar
    44     7     2   ar
    45    41    34    1
    46    15    11   ar
    47    31    26    1
    48    32    33    1
    49    44    45    1
    50     8     9    1
    51    19    20    1
    52    24    25    1
@<TRIPOS>MOLECULE
*****
 49 52 0 0 0
SMALL
GASTEIGER

@<TRIPOS>ATOM
      1 C           9.1581   -7.4613   23.2994 C.3     1  UNL1        0.0523
      2 C           8.3863   -6.7977   24.4012 C.ar    1  UNL1        0.0650
      3 C           7.5689   -5.5737   24.1124 C.ar    1  UNL1        0.0489
      4 C           6.7970   -4.9101   25.2142 C.ar    1  UNL1        0.1325
      5 N           6.8426   -5.4706   26.6047 N.ar    1  UNL1       -0.1991
      6 C           7.6600   -6.6947   26.8935 C.ar    1  UNL1        0.2180
      7 N           8.4318   -7.3583   25.7917 N.ar    1  UNL1       -0.2181
      8 N           7.7056   -7.2553   28.2841 N.pl3   1  UNL1       -0.2977
      9 H           7.1907   -8.0647   28.5057 H       1  UNL1        0.1500
     10 C           8.5355   -6.5827   29.3371 C.3     1  UNL1        0.1395
     11 C           8.0172   -5.3586   30.0321 C.ar    1  UNL1        0.1206
     12 C           7.0475   -5.3386   31.1763 C.ar    1  UNL1        0.1149
     13 N           6.8086   -3.9072   31.5564 N.ar    1  UNL1       -0.2305
     14 N           7.6308   -3.0428   30.6470 N.ar    1  UNL1       -0.0641
     15 N           8.3777   -3.9398   29.7050 N.ar    1  UNL1       -0.1314
     16 C           5.9061   -3.4251   32.6532 C.3     1  UNL1        0.1307
     17 C           5.4286   -2.0031   32.6609 C.3     1  UNL1        0.0435
     18 C           4.2390   -1.6159   33.4884 C.3     1  UNL1        0.0706
     19 N           3.4455   -0.3931   33.1350 N.3     1  UNL1       -0.2974
     20 H           3.3052    0.1274   34.0009 H       1  UNL1        0.1232
     21 C           3.9778    0.5807   32.1259 C.3     1  UNL1        0.0700
     22 C           3.7849    0.3232   30.6608 C.3     1  UNL1        0.0341
     23 C           2.8592   -0.7660   30.2062 C.3     1  UNL1        0.0700
     24 N           1.3884   -0.4981   30.0845 N.3     1  UNL1       -0.2985
     25 H           1.1160    0.0315   30.9127 H       1  UNL1        0.1232
     26 C           0.8581    0.2509   28.8980 C.3     1  UNL1        0.0540
     27 C           1.7643    0.5691   27.7457 C.3     1  UNL1        0.0157
     28 C           1.2340    1.3180   26.5592 C.3     1  UNL1        0.0014
     29 C          -0.2024    1.7487   26.5249 C.3     1  UNL1        0.0001
     30 C          -1.1086    1.4305   27.6771 C.3     1  UNL1        0.0014
     31 C          -0.5783    0.6815   28.8636 C.3     1  UNL1        0.0157
     32 N           5.9796   -3.6860   24.9253 N.pl3   1  UNL1       -0.3195
     33 H           5.5141   -3.2208   25.6576 H       1  UNL1        0.1481
     34 C           5.8714   -3.1706   23.5208 C.3     1  UNL1        0.0738
     35 C           4.7117   -3.5762   22.6603 C.3     1  UNL1        0.0411
     36 C           4.6035   -3.0608   21.2558 C.3     1  UNL1        0.0951
     37 N           5.6551   -2.1398   20.7118 N.am    1  UNL1       -0.2794
     38 C           5.5470   -1.6244   19.3073 C.2     1  UNL1        0.2270
     39 O           6.5985   -0.7034   18.7633 O.2     1  UNL1       -0.2748
     40 C           6.8148   -1.7342   21.5723 C.3     1  UNL1        0.0951
     41 C           6.9230   -2.2495   22.9768 C.3     1  UNL1        0.0411
     42 C           4.3872   -2.0300   18.4467 C.3     1  UNL1        0.1023
     43 C           3.6669   -1.0020   17.6256 C.3     1  UNL1        0.0785
     44 N           3.8340    0.4562   17.9346 N.3     1  UNL1       -0.2924
     45 H           3.4753    0.9707   17.1301 H       1  UNL1        0.1236
     46 C           3.1821    1.0447   19.1506 C.3     1  UNL1        0.1110
     47 C           1.6899    1.0006   19.2972 C.2     1  UNL1        0.0663
     48 O           1.0609    1.2334   20.6389 O.co2   1  UNL1       -0.5477
     49 O           0.8268    0.7236   18.1021 O.co2   1  UNL1       -0.5477
@<TRIPOS>UNITY_ATOM_ATTR
48 1
charge -1
@<TRIPOS>BOND
     1     1     2    1
     2     2     3   ar
     3     3     4   ar
     4     4    32    1
     5    32    34    1
     6    34    35    1
     7    35    36    1
     8    36    37    1
     9    37    38   am
    10    38    39    2
    11    38    42    1
    12    42    43    1
    13    43    44    1
    14    44    46    1
    15    46    47    1
    16    47    48   ar
    17    47    49   ar
    18    37    40    1
    19    40    41    1
    20     4     5   ar
    21     5     6   ar
    22     6     8    1
    23     8    10    1
    24    10    11    1
    25    11    12   ar
    26    12    13   ar
    27    13    16    1
    28    16    17    1
    29    17    18    1
    30    18    19    1
    31    19    21    1
    32    21    22    1
    33    22    23    1
    34    23    24    1
    35    24    26    1
    36    26    27    1
    37    27    28    1
    38    28    29    1
    39    29    30    1
    40    30    31    1
    41    13    14   ar
    42    14    15   ar
    43     6     7   ar
    44     7     2   ar
    45    41    34    1
    46    15    11   ar
    47    31    26    1
    48    32    33    1
    49    44    45    1
    50     8     9    1
    51    19    20    1
    52    24    25    1
@<TRIPOS>MOLECULE
*****
 49 52 0 0 0
SMALL
GASTEIGER

@<TRIPOS>ATOM
      1 C           3.1926    2.7178   25.7408 C.3     1  UNL1        0.0523
      2 C           3.2782    1.3304   26.3046 C.ar    1  UNL1        0.0650
      3 C           2.5514    0.9897   27.5717 C.ar    1  UNL1        0.0489
      4 C           2.6369   -0.3977   28.1355 C.ar    1  UNL1        0.1325
      5 N           3.4493   -1.4443   27.4322 N.ar    1  UNL1       -0.1991
      6 C           4.1761   -1.1035   26.1651 C.ar    1  UNL1        0.2180
      7 N           4.0905    0.2838   25.6013 N.ar    1  UNL1       -0.2181
      8 N           4.9885   -2.1502   25.4618 N.pl3   1  UNL1       -0.2977
      9 H           5.7360   -2.5890   25.9285 H       1  UNL1        0.1500
     10 C           4.6619   -2.5280   24.0474 C.3     1  UNL1        0.1395
     11 C           5.4124   -1.8995   22.9108 C.ar    1  UNL1        0.1206
     12 C           6.5173   -2.5390   22.1232 C.ar    1  UNL1        0.1149
     13 N           6.9775   -1.5559   21.0878 N.ar    1  UNL1       -0.2305
     14 N           6.1569   -0.3089   21.2356 N.ar    1  UNL1       -0.0641
     15 N           5.1897   -0.5213   22.3622 N.ar    1  UNL1       -0.1314
     16 C           8.0669   -1.7804   20.0815 C.3     1  UNL1        0.1307
     17 C           7.7187   -2.1130   18.6608 C.3     1  UNL1        0.0435
     18 C           6.3810   -1.7228   18.1054 C.3     1  UNL1        0.0706
     19 N           5.4086   -2.7818   17.6781 N.3     1  UNL1       -0.2974
     20 H           5.8278   -3.2626   16.8822 H       1  UNL1        0.1232
     21 C           4.9805   -3.8426   18.6483 C.3     1  UNL1        0.0700
     22 C           4.0485   -3.4990   19.7723 C.3     1  UNL1        0.0341
     23 C           3.0160   -2.4264   19.5892 C.3     1  UNL1        0.0700
     24 N           3.1572   -1.1186   20.3100 N.3     1  UNL1       -0.2985
     25 H           4.1533   -0.9836   20.4829 H       1  UNL1        0.1232
     26 C           2.6524    0.1445   19.6778 C.3     1  UNL1        0.0540
     27 C           3.6187    1.1154   19.0665 C.3     1  UNL1        0.0157
     28 C           3.1139    2.3785   18.4343 C.3     1  UNL1        0.0014
     29 C           1.6429    2.6708   18.4134 C.3     1  UNL1        0.0001
     30 C           0.6765    1.7000   19.0247 C.3     1  UNL1        0.0014
     31 C           1.1813    0.4368   19.6569 C.3     1  UNL1        0.0157
     32 N           1.9101   -0.7385   29.4027 N.pl3   1  UNL1       -0.3195
     33 H           1.0673   -1.2460   29.3656 H       1  UNL1        0.1481
     34 C           2.4673   -0.3059   30.7265 C.3     1  UNL1        0.0738
     35 C           2.0575    1.0099   31.3189 C.3     1  UNL1        0.0411
     36 C           2.6147    1.4425   32.6426 C.3     1  UNL1        0.0951
     37 N           3.5818    0.5593   33.3740 N.am    1  UNL1       -0.2794
     38 C           4.1391    0.9919   34.6978 C.2     1  UNL1        0.2270
     39 O           5.1061    0.1089   35.4291 O.2     1  UNL1       -0.2748
     40 C           3.9916   -0.7563   32.7816 C.3     1  UNL1        0.0951
     41 C           3.4344   -1.1889   31.4578 C.3     1  UNL1        0.0411
     42 C           3.7292    2.3077   35.2902 C.3     1  UNL1        0.1023
     43 C           4.1007    2.6416   36.7046 C.3     1  UNL1        0.0785
     44 N           3.8942    1.6303   37.7929 N.3     1  UNL1       -0.2924
     45 H           4.2955    2.0264   38.6429 H       1  UNL1        0.1236
     46 C           2.5080    1.1745   38.1401 C.3     1  UNL1        0.1110
     47 C           1.6450    2.0132   39.0356 C.2     1  UNL1        0.0663
     48 O           0.1511    1.9020   38.9565 O.co2   1  UNL1       -0.5477
     49 O           2.2757    2.9630   40.0103 O.co2   1  UNL1       -0.5477
@<TRIPOS>UNITY_ATOM_ATTR
48 1
charge -1
@<TRIPOS>BOND
     1     1     2    1
     2     2     3   ar
     3     3     4   ar
     4     4    32    1
     5    32    34    1
     6    34    35    1
     7    35    36    1
     8    36    37    1
     9    37    38   am
    10    38    39    2
    11    38    42    1
    12    42    43    1
    13    43    44    1
    14    44    46    1
    15    46    47    1
    16    47    48   ar
    17    47    49   ar
    18    37    40    1
    19    40    41    1
    20     4     5   ar
    21     5     6   ar
    22     6     8    1
    23     8    10    1
    24    10    11    1
    25    11    12   ar
    26    12    13   ar
    27    13    16    1
    28    16    17    1
    29    17    18    1
    30    18    19    1
    31    19    21    1
    32    21    22    1
    33    22    23    1
    34    23    24    1
    35    24    26    1
    36    26    27    1
    37    27    28    1
    38    28    29    1
    39    29    30    1
    40    30    31    1
    41    13    14   ar
    42    14    15   ar
    43     6     7   ar
    44     7     2   ar
    45    41    34    1
    46    15    11   ar
    47    31    26    1
    48    32    33    1
    49    44    45    1
    50     8     9    1
    51    19    20    1
    52    24    25    1
