@<TRIPOS>MOLECULE
*****
 27 30 0 0 0
SMALL
GASTEIGER

@<TRIPOS>ATOM
      1 C          -9.0729  -17.5583   22.4540 C.3     1  UNL1        0.1686
      2 C         -10.1164  -18.6184   22.6470 C.3     1  UNL1        0.0595
      3 C         -11.5108  -18.3995   22.1394 C.3     1  UNL1        0.0611
      4 C         -12.7135  -17.7741   21.4973 C.3     1  UNL1        0.0175
      5 C         -12.3136  -16.4236   20.9813 C.3     1  UNL1        0.0175
      6 C         -10.8639  -16.2144   21.3046 C.3     1  UNL1        0.0611
      7 C          -9.4239  -16.2793   21.7533 C.3     1  UNL1        0.0595
      8 N         -10.3677  -17.4356   22.0204 N.3     1  UNL1       -0.2750
      9 O          -7.6784  -17.7772   22.9616 O.3     1  UNL1       -0.4791
     10 C          -4.2705  -19.3194   21.6361 C.ar    1  UNL1        0.0561
     11 C          -4.7744  -20.2447   20.5684 C.ar    1  UNL1        0.0047
     12 C          -6.2463  -20.3475   20.2985 C.ar    1  UNL1        0.0033
     13 C          -7.2143  -19.5250   21.0962 C.ar    1  UNL1        0.0369
     14 C          -6.7104  -18.5997   22.1638 C.ar    1  UNL1        0.1385
     15 C          -5.2385  -18.4969   22.4338 C.ar    1  UNL1        0.0414
     16 N          -2.2482  -18.0150   22.6151 N.am    1  UNL1       -0.3253
     17 C          -2.7986  -19.2167   21.9060 C.2     1  UNL1        0.2428
     18 O          -1.8770  -20.3158   21.4668 O.2     1  UNL1       -0.2704
     19 H          -1.2821  -17.9475   22.7923 H       1  UNL1        0.1453
     20 H          -2.8530  -17.2936   22.9034 H       1  UNL1        0.1453
     21 C          -8.9733  -17.6545   22.5280 C.3     1  UNL1        0.0720
     22 C          -8.4856  -16.9008   23.7297 C.3     1  UNL1        0.0160
     23 C          -9.0330  -17.2213   25.0890 C.3     1  UNL1        0.0014
     24 C          -8.5453  -16.4677   26.2906 C.3     1  UNL1        0.0000
     25 C          -7.5103  -15.3935   26.1331 C.3     1  UNL1        0.0000
     26 C          -6.9629  -15.0730   24.7738 C.3     1  UNL1        0.0000
     27 C          -7.4506  -15.8267   23.5721 C.3     1  UNL1        0.0014
@<TRIPOS>BOND
     1    16    17   am
     2    17    18    2
     3    17    10    1
     4    10    11   ar
     5    11    12   ar
     6    12    13   ar
     7    13    14   ar
     8    14     9    1
     9     1     9    1
    10     1     2    1
    11     3     2    1
    12     3     4    1
    13     4     5    1
    14     6     5    1
    15     6     7    1
    16     6     8    1
    17     8    21    1
    18    21    22    1
    19    22    23    1
    20    23    24    1
    21    24    25    1
    22    25    26    1
    23    26    27    1
    24    14    15   ar
    25    15    10   ar
    26     7     1    1
    27    27    22    1
    28     8     3    1
    29    16    19    1
    30    16    20    1
@<TRIPOS>MOLECULE
*****
 27 30 0 0 0
SMALL
GASTEIGER

@<TRIPOS>ATOM
      1 C          -8.9860  -17.1443   24.0798 C.3     1  UNL1        0.1686
      2 C          -8.2025  -15.8680   24.1641 C.3     1  UNL1        0.0595
      3 C          -7.7722  -15.3390   25.5001 C.3     1  UNL1        0.0611
      4 C          -7.5658  -15.1968   26.9790 C.3     1  UNL1        0.0175
      5 C          -8.2222  -16.3651   27.6530 C.3     1  UNL1        0.0175
      6 C          -8.8342  -17.2293   26.5907 C.3     1  UNL1        0.0611
      7 C          -9.3393  -17.8916   25.3315 C.3     1  UNL1        0.0595
      8 N          -8.5561  -16.5951   25.2601 N.3     1  UNL1       -0.2750
      9 O          -9.4163  -17.6734   22.7437 O.3     1  UNL1       -0.4791
     10 C          -6.0203  -19.2528   21.4316 C.ar    1  UNL1        0.0561
     11 C          -6.4674  -19.8429   20.1271 C.ar    1  UNL1        0.0047
     12 C          -7.8976  -19.7098   19.6948 C.ar    1  UNL1        0.0033
     13 C          -8.8805  -18.9867   20.5670 C.ar    1  UNL1        0.0369
     14 C          -8.4333  -18.3966   21.8715 C.ar    1  UNL1        0.1385
     15 C          -7.0032  -18.5296   22.3038 C.ar    1  UNL1        0.0414
     16 N          -3.5874  -20.0280   20.9515 N.am    1  UNL1       -0.3253
     17 C          -4.5901  -19.3859   21.8638 C.2     1  UNL1        0.2428
     18 O          -4.1625  -18.8769   23.2086 O.2     1  UNL1       -0.2704
     19 H          -2.6487  -20.1154   21.2352 H       1  UNL1        0.1453
     20 H          -3.8680  -20.3621   20.0689 H       1  UNL1        0.1453
     21 C          -8.9864  -17.1242   23.9241 C.3     1  UNL1        0.0720
     22 C         -10.4441  -17.1853   23.5756 C.3     1  UNL1        0.0160
     23 C         -11.2829  -18.3317   24.0574 C.3     1  UNL1        0.0014
     24 C         -12.7405  -18.3929   23.7090 C.3     1  UNL1        0.0000
     25 C         -13.3594  -17.3076   22.8788 C.3     1  UNL1        0.0000
     26 C         -12.5206  -16.1611   22.3970 C.3     1  UNL1        0.0000
     27 C         -11.0629  -16.1000   22.7455 C.3     1  UNL1        0.0014
@<TRIPOS>BOND
     1    16    17   am
     2    17    18    2
     3    17    10    1
     4    10    11   ar
     5    11    12   ar
     6    12    13   ar
     7    13    14   ar
     8    14     9    1
     9     1     9    1
    10     1     2    1
    11     3     2    1
    12     3     4    1
    13     4     5    1
    14     6     5    1
    15     6     7    1
    16     6     8    1
    17     8    21    1
    18    21    22    1
    19    22    23    1
    20    23    24    1
    21    24    25    1
    22    25    26    1
    23    26    27    1
    24    14    15   ar
    25    15    10   ar
    26     7     1    1
    27    27    22    1
    28     8     3    1
    29    16    19    1
    30    16    20    1
@<TRIPOS>MOLECULE
*****
 27 30 0 0 0
SMALL
GASTEIGER

@<TRIPOS>ATOM
      1 C          -9.2251  -17.3766   24.1223 C.3     1  UNL1        0.1686
      2 C          -9.2634  -18.1328   25.4172 C.3     1  UNL1        0.0595
      3 C          -8.8524  -17.4581   26.6922 C.3     1  UNL1        0.0611
      4 C          -8.3745  -16.4261   27.6703 C.3     1  UNL1        0.0175
      5 C          -8.0931  -15.1633   26.9113 C.3     1  UNL1        0.0175
      6 C          -8.3970  -15.4148   25.4641 C.3     1  UNL1        0.0611
      7 C          -8.7759  -15.9456   24.1025 C.3     1  UNL1        0.0595
      8 N          -8.8663  -16.8331   25.3287 N.3     1  UNL1       -0.2750
      9 O          -9.6361  -18.0514   22.8472 O.3     1  UNL1       -0.4791
     10 C          -6.0978  -19.0296   21.3396 C.ar    1  UNL1        0.0561
     11 C          -6.5053  -19.6326   20.0281 C.ar    1  UNL1        0.0047
     12 C          -7.9565  -19.7085   19.6562 C.ar    1  UNL1        0.0033
     13 C          -9.0001  -19.1815   20.5959 C.ar    1  UNL1        0.0369
     14 C          -8.5925  -18.5785   21.9075 C.ar    1  UNL1        0.1385
     15 C          -7.1414  -18.5025   22.2794 C.ar    1  UNL1        0.0414
     16 N          -3.6796  -18.2363   20.8168 N.am    1  UNL1       -0.3253
     17 C          -4.6466  -18.9537   21.7115 C.2     1  UNL1        0.2428
     18 O          -4.1623  -19.5952   22.9780 O.2     1  UNL1       -0.2704
     19 H          -2.7272  -18.1865   21.0609 H       1  UNL1        0.1453
     20 H          -3.9974  -17.8153   19.9856 H       1  UNL1        0.1453
     21 C          -9.2773  -17.5079   24.0536 C.3     1  UNL1        0.0720
     22 C         -10.6828  -17.3661   23.5493 C.3     1  UNL1        0.0160
     23 C         -11.0172  -16.2977   22.5510 C.3     1  UNL1        0.0014
     24 C         -12.4227  -16.1559   22.0467 C.3     1  UNL1        0.0000
     25 C         -13.4938  -17.0825   22.5407 C.3     1  UNL1        0.0000
     26 C         -13.1594  -18.1510   23.5390 C.3     1  UNL1        0.0000
     27 C         -11.7538  -18.2927   24.0433 C.3     1  UNL1        0.0014
@<TRIPOS>BOND
     1    16    17   am
     2    17    18    2
     3    17    10    1
     4    10    11   ar
     5    11    12   ar
     6    12    13   ar
     7    13    14   ar
     8    14     9    1
     9     1     9    1
    10     1     2    1
    11     3     2    1
    12     3     4    1
    13     4     5    1
    14     6     5    1
    15     6     7    1
    16     6     8    1
    17     8    21    1
    18    21    22    1
    19    22    23    1
    20    23    24    1
    21    24    25    1
    22    25    26    1
    23    26    27    1
    24    14    15   ar
    25    15    10   ar
    26     7     1    1
    27    27    22    1
    28     8     3    1
    29    16    19    1
    30    16    20    1
@<TRIPOS>MOLECULE
*****
 27 30 0 0 0
SMALL
GASTEIGER

@<TRIPOS>ATOM
      1 C          -8.3777  -17.4553   22.9821 C.3     1  UNL1        0.1686
      2 C          -9.0415  -18.2807   24.0442 C.3     1  UNL1        0.0595
      3 C          -9.1318  -17.7631   25.4491 C.3     1  UNL1        0.0611
      4 C          -8.9970  -16.8840   26.6570 C.3     1  UNL1        0.0175
      5 C          -8.2826  -15.6322   26.2418 C.3     1  UNL1        0.0175
      6 C          -7.9759  -15.7375   24.7772 C.3     1  UNL1        0.0611
      7 C          -7.8041  -16.1124   23.3250 C.3     1  UNL1        0.0595
      8 N          -8.5008  -17.0545   24.2874 N.3     1  UNL1       -0.2750
      9 O          -8.2873  -17.9729   21.5771 O.3     1  UNL1       -0.4791
     10 C          -4.6322  -19.5032   21.3594 C.ar    1  UNL1        0.0561
     11 C          -4.8457  -20.6073   20.3667 C.ar    1  UNL1        0.0047
     12 C          -6.2065  -20.8332   19.7775 C.ar    1  UNL1        0.0033
     13 C          -7.3537  -19.9551   20.1809 C.ar    1  UNL1        0.0369
     14 C          -7.1401  -18.8511   21.1736 C.ar    1  UNL1        0.1385
     15 C          -5.7794  -18.6251   21.7628 C.ar    1  UNL1        0.0414
     16 N          -3.0404  -18.1275   22.8838 N.am    1  UNL1       -0.3253
     17 C          -3.2714  -19.2773   21.9486 C.2     1  UNL1        0.2428
     18 O          -2.1414  -20.2012   21.6026 O.2     1  UNL1       -0.2704
     19 H          -2.1473  -17.9792   23.2705 H       1  UNL1        0.1453
     20 H          -3.7820  -17.5211   23.1109 H       1  UNL1        0.1453
     21 C          -8.4105  -17.5721   22.8824 C.3     1  UNL1        0.0720
     22 C          -9.5149  -17.2909   21.9070 C.3     1  UNL1        0.0160
     23 C          -9.6696  -15.9172   21.3250 C.3     1  UNL1        0.0014
     24 C         -10.7739  -15.6360   20.3497 C.3     1  UNL1        0.0000
     25 C         -11.7235  -16.7285   19.9564 C.3     1  UNL1        0.0000
     26 C         -11.5688  -18.1023   20.5385 C.3     1  UNL1        0.0000
     27 C         -10.4644  -18.3835   21.5138 C.3     1  UNL1        0.0014
@<TRIPOS>BOND
     1    16    17   am
     2    17    18    2
     3    17    10    1
     4    10    11   ar
     5    11    12   ar
     6    12    13   ar
     7    13    14   ar
     8    14     9    1
     9     1     9    1
    10     1     2    1
    11     3     2    1
    12     3     4    1
    13     4     5    1
    14     6     5    1
    15     6     7    1
    16     6     8    1
    17     8    21    1
    18    21    22    1
    19    22    23    1
    20    23    24    1
    21    24    25    1
    22    25    26    1
    23    26    27    1
    24    14    15   ar
    25    15    10   ar
    26     7     1    1
    27    27    22    1
    28     8     3    1
    29    16    19    1
    30    16    20    1
@<TRIPOS>MOLECULE
*****
 27 30 0 0 0
SMALL
GASTEIGER

@<TRIPOS>ATOM
      1 C          -8.5300  -17.2424   22.7439 C.3     1  UNL1        0.1686
      2 C          -9.3257  -18.4914   22.5057 C.3     1  UNL1        0.0595
      3 C         -10.5792  -18.4368   21.6836 C.3     1  UNL1        0.0611
      4 C         -11.7110  -17.9294   20.8400 C.3     1  UNL1        0.0175
      5 C         -11.5158  -16.4556   20.6405 C.3     1  UNL1        0.0175
      6 C         -10.2634  -16.0521   21.3607 C.3     1  UNL1        0.0611
      7 C          -8.9877  -15.9387   22.1600 C.3     1  UNL1        0.0595
      8 N          -9.6845  -17.2766   22.0053 N.3     1  UNL1       -0.2750
      9 O          -7.2765  -17.2971   23.5660 O.3     1  UNL1       -0.4791
     10 C          -4.7379  -19.3476   21.3076 C.ar    1  UNL1        0.0561
     11 C          -3.4331  -18.7306   21.7158 C.ar    1  UNL1        0.0047
     12 C          -3.4094  -17.6357   22.7408 C.ar    1  UNL1        0.0033
     13 C          -4.6905  -17.1579   23.3575 C.ar    1  UNL1        0.0369
     14 C          -5.9953  -17.7749   22.9492 C.ar    1  UNL1        0.1385
     15 C          -6.0191  -18.8698   21.9243 C.ar    1  UNL1        0.0414
     16 N          -3.6132  -20.6042   19.3311 N.am    1  UNL1       -0.3253
     17 C          -4.7616  -20.4425   20.2826 C.2     1  UNL1        0.2428
     18 O          -5.9336  -21.3758   20.2090 O.2     1  UNL1       -0.2704
     19 H          -3.6287  -21.3228   18.6584 H       1  UNL1        0.1453
     20 H          -2.8440  -19.9917   19.3794 H       1  UNL1        0.1453
     21 C          -8.4311  -17.3312   22.8274 C.3     1  UNL1        0.0720
     22 C          -8.4602  -16.9145   24.2681 C.3     1  UNL1        0.0160
     23 C          -7.8225  -15.6234   24.6884 C.3     1  UNL1        0.0014
     24 C          -7.8517  -15.2067   26.1289 C.3     1  UNL1        0.0000
     25 C          -8.5184  -16.0809   27.1493 C.3     1  UNL1        0.0000
     26 C          -9.1561  -17.3720   26.7290 C.3     1  UNL1        0.0000
     27 C          -9.1269  -17.7887   25.2883 C.3     1  UNL1        0.0014
@<TRIPOS>BOND
     1    16    17   am
     2    17    18    2
     3    17    10    1
     4    10    11   ar
     5    11    12   ar
     6    12    13   ar
     7    13    14   ar
     8    14     9    1
     9     1     9    1
    10     1     2    1
    11     3     2    1
    12     3     4    1
    13     4     5    1
    14     6     5    1
    15     6     7    1
    16     6     8    1
    17     8    21    1
    18    21    22    1
    19    22    23    1
    20    23    24    1
    21    24    25    1
    22    25    26    1
    23    26    27    1
    24    14    15   ar
    25    15    10   ar
    26     7     1    1
    27    27    22    1
    28     8     3    1
    29    16    19    1
    30    16    20    1
@<TRIPOS>MOLECULE
*****
 27 30 0 0 0
SMALL
GASTEIGER

@<TRIPOS>ATOM
      1 C          -8.9880  -17.0617   24.1133 C.3     1  UNL1        0.1686
      2 C          -8.2869  -15.7470   24.2864 C.3     1  UNL1        0.0595
      3 C          -7.9047  -15.2758   25.6582 C.3     1  UNL1        0.0611
      4 C          -7.7232  -15.2126   27.1458 C.3     1  UNL1        0.0175
      5 C          -8.3122  -16.4586   27.7379 C.3     1  UNL1        0.0175
      6 C          -8.8576  -17.2918   26.6163 C.3     1  UNL1        0.0611
      7 C          -9.3070  -17.9052   25.3120 C.3     1  UNL1        0.0595
      8 N          -8.6058  -16.5608   25.3309 N.3     1  UNL1       -0.2750
      9 O          -9.3702  -17.5330   22.7415 O.3     1  UNL1       -0.4791
     10 C          -7.9225  -19.9578   19.9532 C.ar    1  UNL1        0.0561
     11 C          -6.4639  -19.9533   20.3031 C.ar    1  UNL1        0.0047
     12 C          -5.9741  -19.1420   21.4658 C.ar    1  UNL1        0.0033
     13 C          -6.9429  -18.3353   22.2785 C.ar    1  UNL1        0.0369
     14 C          -8.4015  -18.3398   21.9286 C.ar    1  UNL1        0.1385
     15 C          -8.8913  -19.1510   20.7660 C.ar    1  UNL1        0.0414
     16 N          -9.6288  -20.3312   18.0298 N.am    1  UNL1       -0.3253
     17 C          -8.4124  -20.7691   18.7905 C.2     1  UNL1        0.2428
     18 O          -7.6857  -22.0183   18.3884 O.2     1  UNL1       -0.2704
     19 H          -9.9503  -20.8637   17.2667 H       1  UNL1        0.1453
     20 H         -10.1057  -19.5114   18.2937 H       1  UNL1        0.1453
     21 C          -8.9880  -17.0321   23.9591 C.3     1  UNL1        0.0720
     22 C         -10.4351  -17.1388   23.5788 C.3     1  UNL1        0.0160
     23 C         -11.2465  -18.3139   24.0379 C.3     1  UNL1        0.0014
     24 C         -12.6934  -18.4207   23.6576 C.3     1  UNL1        0.0000
     25 C         -13.3291  -17.3524   22.8182 C.3     1  UNL1        0.0000
     26 C         -12.5177  -16.1772   22.3591 C.3     1  UNL1        0.0000
     27 C         -11.0707  -16.0705   22.7394 C.3     1  UNL1        0.0014
@<TRIPOS>BOND
     1    16    17   am
     2    17    18    2
     3    17    10    1
     4    10    11   ar
     5    11    12   ar
     6    12    13   ar
     7    13    14   ar
     8    14     9    1
     9     1     9    1
    10     1     2    1
    11     3     2    1
    12     3     4    1
    13     4     5    1
    14     6     5    1
    15     6     7    1
    16     6     8    1
    17     8    21    1
    18    21    22    1
    19    22    23    1
    20    23    24    1
    21    24    25    1
    22    25    26    1
    23    26    27    1
    24    14    15   ar
    25    15    10   ar
    26     7     1    1
    27    27    22    1
    28     8     3    1
    29    16    19    1
    30    16    20    1
@<TRIPOS>MOLECULE
*****
 27 30 0 0 0
SMALL
GASTEIGER

@<TRIPOS>ATOM
      1 C         -10.2076  -17.7860   22.8138 C.3     1  UNL1        0.1686
      2 C         -10.4204  -18.7612   23.9335 C.3     1  UNL1        0.0595
      3 C         -11.7808  -18.9138   24.5466 C.3     1  UNL1        0.0611
      4 C         -13.2414  -18.7383   24.8397 C.3     1  UNL1        0.0175
      5 C         -13.7810  -17.7003   23.9008 C.3     1  UNL1        0.0175
      6 C         -12.6540  -17.2344   23.0275 C.3     1  UNL1        0.0611
      7 C         -11.3552  -16.9635   22.3073 C.3     1  UNL1        0.0595
      8 N         -11.4178  -17.9844   23.4266 N.3     1  UNL1       -0.2750
      9 O          -8.8471  -17.6333   22.2005 O.3     1  UNL1       -0.4791
     10 C          -5.2616  -16.5687   23.5272 C.ar    1  UNL1        0.0561
     11 C          -5.6188  -15.4114   24.4120 C.ar    1  UNL1        0.0047
     12 C          -7.0522  -14.9947   24.5596 C.ar    1  UNL1        0.0033
     13 C          -8.1283  -15.7353   23.8225 C.ar    1  UNL1        0.0369
     14 C          -7.7710  -16.8927   22.9377 C.ar    1  UNL1        0.1385
     15 C          -6.3377  -17.3094   22.7901 C.ar    1  UNL1        0.0414
     16 N          -2.9505  -16.3082   22.3692 N.am    1  UNL1       -0.3253
     17 C          -3.8282  -16.9854   23.3796 C.2     1  UNL1        0.2428
     18 O          -3.2725  -18.0795   24.2425 O.2     1  UNL1       -0.2704
     19 H          -2.0097  -16.5817   22.2724 H       1  UNL1        0.1453
     20 H          -3.3152  -15.5902   21.8029 H       1  UNL1        0.1453
     21 C         -10.0574  -17.8318   22.8135 C.3     1  UNL1        0.0720
     22 C          -9.7325  -18.5291   21.5257 C.3     1  UNL1        0.0160
     23 C         -10.7306  -18.5396   20.4060 C.3     1  UNL1        0.0014
     24 C         -10.4058  -19.2370   19.1184 C.3     1  UNL1        0.0000
     25 C          -9.0829  -19.9238   18.9504 C.3     1  UNL1        0.0000
     26 C          -8.0848  -19.9134   20.0701 C.3     1  UNL1        0.0000
     27 C          -8.4097  -19.2160   21.3578 C.3     1  UNL1        0.0014
@<TRIPOS>BOND
     1    16    17   am
     2    17    18    2
     3    17    10    1
     4    10    11   ar
     5    11    12   ar
     6    12    13   ar
     7    13    14   ar
     8    14     9    1
     9     1     9    1
    10     1     2    1
    11     3     2    1
    12     3     4    1
    13     4     5    1
    14     6     5    1
    15     6     7    1
    16     6     8    1
    17     8    21    1
    18    21    22    1
    19    22    23    1
    20    23    24    1
    21    24    25    1
    22    25    26    1
    23    26    27    1
    24    14    15   ar
    25    15    10   ar
    26     7     1    1
    27    27    22    1
    28     8     3    1
    29    16    19    1
    30    16    20    1
@<TRIPOS>MOLECULE
*****
 27 30 0 0 0
SMALL
GASTEIGER

@<TRIPOS>ATOM
      1 C          -9.8150  -17.5532   23.0169 C.3     1  UNL1        0.1686
      2 C         -10.9141  -16.6531   22.5355 C.3     1  UNL1        0.0595
      3 C         -12.3310  -16.9085   22.9561 C.3     1  UNL1        0.0611
      4 C         -13.5393  -17.5181   23.6030 C.3     1  UNL1        0.0175
      5 C         -13.0882  -18.7049   24.4017 C.3     1  UNL1        0.0175
      6 C         -11.6012  -18.8288   24.2485 C.3     1  UNL1        0.0611
      7 C         -10.1329  -18.7088   23.9189 C.3     1  UNL1        0.0595
      8 N         -11.1332  -17.7185   23.3551 N.3     1  UNL1       -0.2750
      9 O          -8.3979  -17.2978   22.5962 O.3     1  UNL1       -0.4791
     10 C          -6.9374  -15.5779   25.8609 C.ar    1  UNL1        0.0561
     11 C          -5.5661  -15.1940   25.3898 C.ar    1  UNL1        0.0047
     12 C          -5.1387  -15.5115   23.9874 C.ar    1  UNL1        0.0033
     13 C          -6.0826  -16.2127   23.0563 C.ar    1  UNL1        0.0369
     14 C          -7.4540  -16.5966   23.5274 C.ar    1  UNL1        0.1385
     15 C          -7.8814  -16.2792   24.9297 C.ar    1  UNL1        0.0414
     16 N          -8.5381  -15.9721   27.8690 N.am    1  UNL1       -0.3253
     17 C          -7.3648  -15.2605   27.2632 C.2     1  UNL1        0.2428
     18 O          -6.6189  -14.2313   28.0599 O.2     1  UNL1       -0.2704
     19 H          -8.8186  -15.7638   28.7894 H       1  UNL1        0.1453
     20 H          -9.0277  -16.6476   27.3462 H       1  UNL1        0.1453
     21 C          -9.7163  -17.4631   22.9344 C.3     1  UNL1        0.0720
     22 C          -9.0863  -18.3094   21.8681 C.3     1  UNL1        0.0160
     23 C          -9.7460  -18.4404   20.5273 C.3     1  UNL1        0.0014
     24 C          -9.1161  -19.2866   19.4611 C.3     1  UNL1        0.0000
     25 C          -7.8265  -20.0019   19.7355 C.3     1  UNL1        0.0000
     26 C          -7.1667  -19.8708   21.0763 C.3     1  UNL1        0.0000
     27 C          -7.7967  -19.0246   22.1425 C.3     1  UNL1        0.0014
@<TRIPOS>BOND
     1    16    17   am
     2    17    18    2
     3    17    10    1
     4    10    11   ar
     5    11    12   ar
     6    12    13   ar
     7    13    14   ar
     8    14     9    1
     9     1     9    1
    10     1     2    1
    11     3     2    1
    12     3     4    1
    13     4     5    1
    14     6     5    1
    15     6     7    1
    16     6     8    1
    17     8    21    1
    18    21    22    1
    19    22    23    1
    20    23    24    1
    21    24    25    1
    22    25    26    1
    23    26    27    1
    24    14    15   ar
    25    15    10   ar
    26     7     1    1
    27    27    22    1
    28     8     3    1
    29    16    19    1
    30    16    20    1
