@<TRIPOS>MOLECULE
*****
 26 30 0 0 0
SMALL
GASTEIGER

@<TRIPOS>ATOM
      1 C           2.7643   -0.5277   19.8998 C.ar    1  UNL1        0.0152
      2 C           3.1147    0.7408   19.1799 C.ar    1  UNL1        0.0043
      3 C           2.0823    1.8154   19.0083 C.ar    1  UNL1        0.0369
      4 C           0.6996    1.6214   19.5566 C.ar    1  UNL1        0.1384
      5 C           0.3493    0.3530   20.2764 C.ar    1  UNL1        0.0369
      6 C           1.3817   -0.7216   20.4481 C.ar    1  UNL1        0.0043
      7 O           6.8939   -4.8261   20.5862 O.2     1  UNL1       -0.2734
      8 C           5.8615   -3.7515   20.4146 C.2     1  UNL1        0.2410
      9 N           6.1425   -2.3581   20.8935 N.am    1  UNL1       -0.2062
     10 N           5.1102   -1.2835   20.7219 N.2     1  UNL1       -0.1836
     11 C           3.7967   -1.6023   20.0714 C.2     1  UNL1        0.0763
     12 C           3.5156   -2.9958   19.5925 C.3     1  UNL1        0.0509
     13 C           3.2345   -4.3892   19.1137 C.3     1  UNL1        0.0160
     14 C           4.5480   -4.0704   19.7641 C.3     1  UNL1        0.0841
     15 H           7.0046   -2.1488   21.3204 H       1  UNL1        0.1772
     16 O          -0.3328    2.6960   19.3850 O.3     1  UNL1       -0.4791
     17 C          -1.2862    3.0052   20.5010 C.3     1  UNL1        0.1687
     18 C          -0.7690    3.2109   21.8939 C.3     1  UNL1        0.0609
     19 C          -1.7225    3.5201   23.0100 C.3     1  UNL1        0.0758
     20 N          -3.1930    3.6236   22.7330 N.3     1  UNL1       -0.2737
     21 C          -3.7102    3.4179   21.3400 C.3     1  UNL1        0.0758
     22 C          -2.7568    3.1087   20.2241 C.3     1  UNL1        0.0609
     23 C          -4.1464    3.9327   23.8490 C.3     1  UNL1        0.0575
     24 C          -5.5849    4.3500   23.9301 C.3     1  UNL1        0.0160
     25 C          -5.4948    4.3699   25.4272 C.3     1  UNL1        0.0028
     26 C          -4.0562    3.9527   25.3461 C.3     1  UNL1        0.0160
@<TRIPOS>BOND
     1     7     8    2
     2     8     9   am
     3     9    10    1
     4    10    11    2
     5    11     1    1
     6     1     2   ar
     7     2     3   ar
     8     3     4   ar
     9     4    16    1
    10    16    17    1
    11    17    18    1
    12    18    19    1
    13    19    20    1
    14    20    23    1
    15    23    24    1
    16    24    25    1
    17    25    26    1
    18    20    21    1
    19    21    22    1
    20     4     5   ar
    21     5     6   ar
    22    11    12    1
    23    12    13    1
    24    14    13    1
    25    14     8    1
    26     6     1   ar
    27    14    12    1
    28    22    17    1
    29    26    23    1
    30     9    15    1
@<TRIPOS>MOLECULE
*****
 26 30 0 0 0
SMALL
GASTEIGER

@<TRIPOS>ATOM
      1 C          -2.3765    3.4253   21.4053 C.ar    1  UNL1        0.0152
      2 C          -2.0469    3.3913   19.9423 C.ar    1  UNL1        0.0043
      3 C          -0.6327    3.1632   19.4973 C.ar    1  UNL1        0.0369
      4 C           0.4518    2.9690   20.5152 C.ar    1  UNL1        0.1384
      5 C           0.1222    3.0030   21.9781 C.ar    1  UNL1        0.0369
      6 C          -1.2920    3.2311   22.4232 C.ar    1  UNL1        0.0043
      7 O          -8.0332    4.3378   23.1855 O.2     1  UNL1       -0.2734
      8 C          -6.6191    4.1097   22.7405 C.2     1  UNL1        0.2410
      9 N          -6.2754    4.1557   21.2812 N.am    1  UNL1       -0.2062
     10 N          -4.8612    3.9276   20.8361 N.2     1  UNL1       -0.1836
     11 C          -3.7907    3.6534   21.8504 C.2     1  UNL1        0.0763
     12 C          -4.1344    3.6074   23.3098 C.3     1  UNL1        0.0509
     13 C          -4.4780    3.5613   24.7692 C.3     1  UNL1        0.0160
     14 C          -5.5485    3.8355   23.7549 C.3     1  UNL1        0.0841
     15 H          -6.9780    4.3356   20.6154 H       1  UNL1        0.1772
     16 O           1.8660    2.7409   20.0702 O.3     1  UNL1       -0.4791
     17 C           2.3562    1.3463   19.8150 C.3     1  UNL1        0.1687
     18 C           2.8598    0.9656   18.4544 C.3     1  UNL1        0.0609
     19 C           3.3501   -0.4290   18.1993 C.3     1  UNL1        0.0758
     20 N           3.3367   -1.4426   19.3049 N.3     1  UNL1       -0.2737
     21 C           2.8331   -1.0618   20.6655 C.3     1  UNL1        0.0758
     22 C           2.3429    0.3327   20.9206 C.3     1  UNL1        0.0609
     23 C           3.8270   -2.8371   19.0498 C.3     1  UNL1        0.0575
     24 C           5.0926   -3.4343   18.5098 C.3     1  UNL1        0.0160
     25 C           4.5203   -4.8092   18.6891 C.3     1  UNL1        0.0028
     26 C           3.2547   -4.2120   19.2291 C.3     1  UNL1        0.0160
@<TRIPOS>BOND
     1     7     8    2
     2     8     9   am
     3     9    10    1
     4    10    11    2
     5    11     1    1
     6     1     2   ar
     7     2     3   ar
     8     3     4   ar
     9     4    16    1
    10    16    17    1
    11    17    18    1
    12    18    19    1
    13    19    20    1
    14    20    23    1
    15    23    24    1
    16    24    25    1
    17    25    26    1
    18    20    21    1
    19    21    22    1
    20     4     5   ar
    21     5     6   ar
    22    11    12    1
    23    12    13    1
    24    14    13    1
    25    14     8    1
    26     6     1   ar
    27    14    12    1
    28    22    17    1
    29    26    23    1
    30     9    15    1
@<TRIPOS>MOLECULE
*****
 26 30 0 0 0
SMALL
GASTEIGER

@<TRIPOS>ATOM
      1 C           2.4007   -0.5242   19.6066 C.ar    1  UNL1        0.0152
      2 C           1.1393   -0.5681   20.4173 C.ar    1  UNL1        0.0043
      3 C           0.1604    0.5660   20.3433 C.ar    1  UNL1        0.0369
      4 C           0.4427    1.7440   19.4585 C.ar    1  UNL1        0.1384
      5 C           1.7040    1.7878   18.6478 C.ar    1  UNL1        0.0369
      6 C           2.6830    0.6538   18.7219 C.ar    1  UNL1        0.0043
      7 O           6.3166   -5.0604   19.9027 O.2     1  UNL1       -0.2734
      8 C           5.3376   -3.9264   19.8287 C.2     1  UNL1        0.2410
      9 N           4.8915   -3.4066   18.4942 N.am    1  UNL1       -0.2062
     10 N           3.9125   -2.2725   18.4202 N.2     1  UNL1       -0.1836
     11 C           3.3797   -1.6582   19.6806 C.2     1  UNL1        0.0763
     12 C           3.8258   -2.1780   21.0151 C.3     1  UNL1        0.0509
     13 C           4.2719   -2.6978   22.3496 C.3     1  UNL1        0.0160
     14 C           4.8048   -3.3121   21.0892 C.3     1  UNL1        0.0841
     15 H           5.2412   -3.8098   17.6670 H       1  UNL1        0.1772
     16 O          -0.5363    2.8780   19.3845 O.3     1  UNL1       -0.4791
     17 C          -1.4425    3.1635   20.5453 C.3     1  UNL1        0.1687
     18 C          -2.9289    3.1946   20.3464 C.3     1  UNL1        0.0609
     19 C          -3.8351    3.4801   21.5071 C.3     1  UNL1        0.0758
     20 N          -3.2549    3.7344   22.8668 N.3     1  UNL1       -0.2737
     21 C          -1.7684    3.7033   23.0656 C.3     1  UNL1        0.0758
     22 C          -0.8622    3.4179   21.9049 C.3     1  UNL1        0.0609
     23 C          -4.1610    4.0199   24.0275 C.3     1  UNL1        0.0575
     24 C          -5.6469    4.0857   24.2220 C.3     1  UNL1        0.0160
     25 C          -5.4425    4.4236   25.6691 C.3     1  UNL1        0.0028
     26 C          -3.9566    4.3578   25.4746 C.3     1  UNL1        0.0160
@<TRIPOS>BOND
     1     7     8    2
     2     8     9   am
     3     9    10    1
     4    10    11    2
     5    11     1    1
     6     1     2   ar
     7     2     3   ar
     8     3     4   ar
     9     4    16    1
    10    16    17    1
    11    17    18    1
    12    18    19    1
    13    19    20    1
    14    20    23    1
    15    23    24    1
    16    24    25    1
    17    25    26    1
    18    20    21    1
    19    21    22    1
    20     4     5   ar
    21     5     6   ar
    22    11    12    1
    23    12    13    1
    24    14    13    1
    25    14     8    1
    26     6     1   ar
    27    14    12    1
    28    22    17    1
    29    26    23    1
    30     9    15    1
@<TRIPOS>MOLECULE
*****
 26 30 0 0 0
SMALL
GASTEIGER

@<TRIPOS>ATOM
      1 C           6.3117   -3.4960   21.4157 C.ar    1  UNL1        0.0152
      2 C           7.6204   -4.2224   21.3170 C.ar    1  UNL1        0.0043
      3 C           8.2130   -4.8688   22.5340 C.ar    1  UNL1        0.0369
      4 C           7.4969   -4.7888   23.8496 C.ar    1  UNL1        0.1384
      5 C           6.1882   -4.0624   23.9482 C.ar    1  UNL1        0.0369
      6 C           5.5956   -3.4160   22.7313 C.ar    1  UNL1        0.0043
      7 O           3.9414   -0.9104   16.5478 O.2     1  UNL1       -0.2734
      8 C           4.5339   -1.5568   17.7648 C.2     1  UNL1        0.2410
      9 N           5.9263   -2.1126   17.7160 N.am    1  UNL1       -0.2062
     10 N           6.5189   -2.7590   18.9329 N.2     1  UNL1       -0.1836
     11 C           5.7191   -2.8496   20.1987 C.2     1  UNL1        0.0763
     12 C           4.3267   -2.2937   20.2475 C.3     1  UNL1        0.0509
     13 C           2.9344   -1.7379   20.2963 C.3     1  UNL1        0.0160
     14 C           3.7341   -1.6473   19.0306 C.3     1  UNL1        0.0841
     15 H           6.4512   -2.0532   16.8852 H       1  UNL1        0.1772
     16 O           8.0895   -5.4352   25.0666 O.3     1  UNL1       -0.4791
     17 C           7.7099   -4.9491   26.4340 C.3     1  UNL1        0.1687
     18 C           8.3021   -3.6794   26.9697 C.3     1  UNL1        0.0609
     19 C           7.9226   -3.1933   28.3371 C.3     1  UNL1        0.0758
     20 N           6.9509   -3.9770   29.1688 N.3     1  UNL1       -0.2737
     21 C           6.3587   -5.2468   28.6330 C.3     1  UNL1        0.0758
     22 C           6.7383   -5.7328   27.2656 C.3     1  UNL1        0.0609
     23 C           6.5713   -3.4910   30.5361 C.3     1  UNL1        0.0575
     24 C           5.9265   -2.2506   31.0798 C.3     1  UNL1        0.0160
     25 C           6.0346   -2.8037   32.4699 C.3     1  UNL1        0.0028
     26 C           6.6795   -4.0441   31.9262 C.3     1  UNL1        0.0160
@<TRIPOS>BOND
     1     7     8    2
     2     8     9   am
     3     9    10    1
     4    10    11    2
     5    11     1    1
     6     1     2   ar
     7     2     3   ar
     8     3     4   ar
     9     4    16    1
    10    16    17    1
    11    17    18    1
    12    18    19    1
    13    19    20    1
    14    20    23    1
    15    23    24    1
    16    24    25    1
    17    25    26    1
    18    20    21    1
    19    21    22    1
    20     4     5   ar
    21     5     6   ar
    22    11    12    1
    23    12    13    1
    24    14    13    1
    25    14     8    1
    26     6     1   ar
    27    14    12    1
    28    22    17    1
    29    26    23    1
    30     9    15    1
@<TRIPOS>MOLECULE
*****
 26 30 0 0 0
SMALL
GASTEIGER

@<TRIPOS>ATOM
      1 C           4.4168   -2.0589   20.6194 C.ar    1  UNL1        0.0152
      2 C           4.0214   -2.9526   21.7575 C.ar    1  UNL1        0.0043
      3 C           5.0403   -3.8494   22.3958 C.ar    1  UNL1        0.0369
      4 C           6.4547   -3.8526   21.8960 C.ar    1  UNL1        0.1384
      5 C           6.8501   -2.9590   20.7580 C.ar    1  UNL1        0.0369
      6 C           5.8311   -2.0621   20.1197 C.ar    1  UNL1        0.0043
      7 O           0.3411    1.5285   18.0662 O.2     1  UNL1       -0.2734
      8 C           1.3600    0.6316   18.7045 C.2     1  UNL1        0.2410
      9 N           0.9423   -0.3408   19.7675 N.am    1  UNL1       -0.2062
     10 N           1.9613   -1.2376   20.4058 N.2     1  UNL1       -0.1836
     11 C           3.3979   -1.1621   19.9811 C.2     1  UNL1        0.0763
     12 C           3.8156   -0.1897   18.9181 C.3     1  UNL1        0.0509
     13 C           4.2333    0.7827   17.8551 C.3     1  UNL1        0.0160
     14 C           2.7967    0.7072   18.2797 C.3     1  UNL1        0.0841
     15 H          -0.0006   -0.3903   20.0462 H       1  UNL1        0.1772
     16 O           7.4736   -4.7494   22.5343 O.3     1  UNL1       -0.4791
     17 C           7.4647   -4.9566   24.0200 C.3     1  UNL1        0.1687
     18 C           7.1854   -3.8025   24.9365 C.3     1  UNL1        0.0609
     19 C           7.1765   -4.0096   26.4222 C.3     1  UNL1        0.0758
     20 N           7.4469   -5.3709   26.9912 N.3     1  UNL1       -0.2737
     21 C           7.7262   -6.5250   26.0746 C.3     1  UNL1        0.0758
     22 C           7.7351   -6.3178   24.5891 C.3     1  UNL1        0.0609
     23 C           7.4380   -5.5781   28.4768 C.3     1  UNL1        0.0575
     24 C           6.7292   -4.9370   29.6329 C.3     1  UNL1        0.0160
     25 C           7.4254   -5.8711   30.5777 C.3     1  UNL1        0.0028
     26 C           8.1342   -6.5122   29.4216 C.3     1  UNL1        0.0160
@<TRIPOS>BOND
     1     7     8    2
     2     8     9   am
     3     9    10    1
     4    10    11    2
     5    11     1    1
     6     1     2   ar
     7     2     3   ar
     8     3     4   ar
     9     4    16    1
    10    16    17    1
    11    17    18    1
    12    18    19    1
    13    19    20    1
    14    20    23    1
    15    23    24    1
    16    24    25    1
    17    25    26    1
    18    20    21    1
    19    21    22    1
    20     4     5   ar
    21     5     6   ar
    22    11    12    1
    23    12    13    1
    24    14    13    1
    25    14     8    1
    26     6     1   ar
    27    14    12    1
    28    22    17    1
    29    26    23    1
    30     9    15    1
@<TRIPOS>MOLECULE
*****
 26 30 0 0 0
SMALL
GASTEIGER

@<TRIPOS>ATOM
      1 C           7.2952   -5.0783   25.8557 C.ar    1  UNL1        0.0152
      2 C           6.4623   -3.9406   25.3439 C.ar    1  UNL1        0.0043
      3 C           6.3928   -3.6652   23.8710 C.ar    1  UNL1        0.0369
      4 C           7.1561   -4.5277   22.9100 C.ar    1  UNL1        0.1384
      5 C           7.9890   -5.6654   23.4218 C.ar    1  UNL1        0.0369
      6 C           8.0585   -5.9407   24.8947 C.ar    1  UNL1        0.0043
      7 O           7.5732   -6.1797   31.7472 O.2     1  UNL1       -0.2734
      8 C           7.5037   -5.9043   30.2743 C.2     1  UNL1        0.2410
      9 N           6.5886   -4.8360   29.7534 N.am    1  UNL1       -0.2062
     10 N           6.5191   -4.5607   28.2805 N.2     1  UNL1       -0.1836
     11 C           7.3647   -5.3537   27.3286 C.2     1  UNL1        0.0763
     12 C           8.2798   -6.4220   27.8495 C.3     1  UNL1        0.0509
     13 C           9.1948   -7.4903   28.3704 C.3     1  UNL1        0.0160
     14 C           8.3493   -6.6974   29.3224 C.3     1  UNL1        0.0841
     15 H           6.0337   -4.3156   30.3782 H       1  UNL1        0.1772
     16 O           7.0866   -4.2523   21.4371 O.3     1  UNL1       -0.4791
     17 C           6.0204   -3.3486   20.8925 C.3     1  UNL1        0.1687
     18 C           4.7256   -3.9264   20.4031 C.3     1  UNL1        0.0609
     19 C           3.6593   -3.0226   19.8585 C.3     1  UNL1        0.0758
     20 N           3.8879   -1.5412   19.8035 N.3     1  UNL1       -0.2737
     21 C           5.1828   -0.9635   20.2930 C.3     1  UNL1        0.0758
     22 C           6.2490   -1.8672   20.8375 C.3     1  UNL1        0.0609
     23 C           2.8217   -0.6375   19.2590 C.3     1  UNL1        0.0575
     24 C           1.4544   -0.2178   19.7110 C.3     1  UNL1        0.0160
     25 C           1.3139    0.6406   18.4889 C.3     1  UNL1        0.0028
     26 C           2.6812    0.2208   18.0369 C.3     1  UNL1        0.0160
@<TRIPOS>BOND
     1     7     8    2
     2     8     9   am
     3     9    10    1
     4    10    11    2
     5    11     1    1
     6     1     2   ar
     7     2     3   ar
     8     3     4   ar
     9     4    16    1
    10    16    17    1
    11    17    18    1
    12    18    19    1
    13    19    20    1
    14    20    23    1
    15    23    24    1
    16    24    25    1
    17    25    26    1
    18    20    21    1
    19    21    22    1
    20     4     5   ar
    21     5     6   ar
    22    11    12    1
    23    12    13    1
    24    14    13    1
    25    14     8    1
    26     6     1   ar
    27    14    12    1
    28    22    17    1
    29    26    23    1
    30     9    15    1
@<TRIPOS>MOLECULE
*****
 26 30 0 0 0
SMALL
GASTEIGER

@<TRIPOS>ATOM
      1 C          -9.5839  -19.5353   22.0691 C.ar    1  UNL1        0.0152
      2 C          -8.3342  -19.9621   22.7805 C.ar    1  UNL1        0.0043
      3 C          -7.1313  -20.3891   21.9927 C.ar    1  UNL1        0.0369
      4 C          -7.1781  -20.3892   20.4934 C.ar    1  UNL1        0.1384
      5 C          -8.4277  -19.9624   19.7820 C.ar    1  UNL1        0.0369
      6 C          -9.6307  -19.5354   20.5698 C.ar    1  UNL1        0.0043
      7 O         -14.3956  -17.8274   25.2204 O.2     1  UNL1       -0.2734
      8 C         -13.1927  -18.2543   24.4325 C.2     1  UNL1        0.2410
      9 N         -12.0963  -19.0308   25.0995 N.am    1  UNL1       -0.2062
     10 N         -10.8934  -19.4578   24.3117 N.2     1  UNL1       -0.1836
     11 C         -10.7869  -19.1083   22.8569 C.2     1  UNL1        0.0763
     12 C         -11.8833  -18.3317   22.1899 C.3     1  UNL1        0.0509
     13 C         -12.9797  -17.5552   21.5229 C.3     1  UNL1        0.0160
     14 C         -13.0862  -17.9048   22.9777 C.3     1  UNL1        0.0841
     15 H         -12.1662  -19.2603   26.0543 H       1  UNL1        0.1772
     16 O          -5.9752  -20.8162   19.7056 O.3     1  UNL1       -0.4791
     17 C          -4.6905  -20.0509   19.8244 C.3     1  UNL1        0.1687
     18 C          -4.5302  -18.7396   19.1140 C.3     1  UNL1        0.0609
     19 C          -3.2455  -17.9744   19.2328 C.3     1  UNL1        0.0758
     20 N          -2.1212  -18.5205   20.0621 N.3     1  UNL1       -0.2737
     21 C          -2.2816  -19.8319   20.7726 C.3     1  UNL1        0.0758
     22 C          -3.5662  -20.5970   20.6537 C.3     1  UNL1        0.0609
     23 C          -0.8366  -17.7553   20.1810 C.3     1  UNL1        0.0575
     24 C          -0.4696  -16.3507   20.5586 C.3     1  UNL1        0.0160
     25 C           0.9802  -16.6732   20.3491 C.3     1  UNL1        0.0028
     26 C           0.6133  -18.0777   19.9715 C.3     1  UNL1        0.0160
@<TRIPOS>BOND
     1     7     8    2
     2     8     9   am
     3     9    10    1
     4    10    11    2
     5    11     1    1
     6     1     2   ar
     7     2     3   ar
     8     3     4   ar
     9     4    16    1
    10    16    17    1
    11    17    18    1
    12    18    19    1
    13    19    20    1
    14    20    23    1
    15    23    24    1
    16    24    25    1
    17    25    26    1
    18    20    21    1
    19    21    22    1
    20     4     5   ar
    21     5     6   ar
    22    11    12    1
    23    12    13    1
    24    14    13    1
    25    14     8    1
    26     6     1   ar
    27    14    12    1
    28    22    17    1
    29    26    23    1
    30     9    15    1
@<TRIPOS>MOLECULE
*****
 26 30 0 0 0
SMALL
GASTEIGER

@<TRIPOS>ATOM
      1 C           6.5618   -2.0603   31.1826 C.ar    1  UNL1        0.0152
      2 C           5.3821   -1.1660   31.4251 C.ar    1  UNL1        0.0043
      3 C           5.4417   -0.1209   32.4994 C.ar    1  UNL1        0.0369
      4 C           6.6808    0.0299   33.3312 C.ar    1  UNL1        0.1384
      5 C           7.8604   -0.8644   33.0887 C.ar    1  UNL1        0.0369
      6 C           7.8008   -1.9095   32.0144 C.ar    1  UNL1        0.0043
      7 O           6.3236   -6.2409   26.8853 O.2     1  UNL1       -0.2734
      8 C           6.3831   -5.1958   27.9596 C.2     1  UNL1        0.2410
      9 N           5.9487   -3.7908   27.6641 N.am    1  UNL1       -0.2062
     10 N           6.0082   -2.7457   28.7384 N.2     1  UNL1       -0.1836
     11 C           6.5022   -3.1055   30.1083 C.2     1  UNL1        0.0763
     12 C           6.9367   -4.5105   30.4039 C.3     1  UNL1        0.0509
     13 C           7.3711   -5.9154   30.6994 C.3     1  UNL1        0.0160
     14 C           6.8771   -5.5556   29.3295 C.3     1  UNL1        0.0841
     15 H           5.6245   -3.5546   26.7650 H       1  UNL1        0.1772
     16 O           6.7404    1.0751   34.4055 O.3     1  UNL1       -0.4791
     17 C           5.6064    1.2174   35.3770 C.3     1  UNL1        0.1687
     18 C           4.7799    2.4692   35.3870 C.3     1  UNL1        0.0609
     19 C           3.6459    2.6115   36.3585 C.3     1  UNL1        0.0758
     20 N           3.3384    1.5021   37.3201 N.3     1  UNL1       -0.2737
     21 C           4.1648    0.2503   37.3101 C.3     1  UNL1        0.0758
     22 C           5.2988    0.1080   36.3386 C.3     1  UNL1        0.0609
     23 C           2.2044    1.6444   38.2915 C.3     1  UNL1        0.0575
     24 C           1.4965    0.7210   39.2382 C.3     1  UNL1        0.0160
     25 C           0.6007    1.8457   39.6655 C.3     1  UNL1        0.0028
     26 C           1.3086    2.7692   38.7188 C.3     1  UNL1        0.0160
@<TRIPOS>BOND
     1     7     8    2
     2     8     9   am
     3     9    10    1
     4    10    11    2
     5    11     1    1
     6     1     2   ar
     7     2     3   ar
     8     3     4   ar
     9     4    16    1
    10    16    17    1
    11    17    18    1
    12    18    19    1
    13    19    20    1
    14    20    23    1
    15    23    24    1
    16    24    25    1
    17    25    26    1
    18    20    21    1
    19    21    22    1
    20     4     5   ar
    21     5     6   ar
    22    11    12    1
    23    12    13    1
    24    14    13    1
    25    14     8    1
    26     6     1   ar
    27    14    12    1
    28    22    17    1
    29    26    23    1
    30     9    15    1
@<TRIPOS>MOLECULE
*****
 26 30 0 0 0
SMALL
GASTEIGER

@<TRIPOS>ATOM
      1 C           0.4659    2.4432   29.5559 C.ar    1  UNL1        0.0152
      2 C           0.5172    3.7579   28.8353 C.ar    1  UNL1        0.0043
      3 C          -0.0585    3.8799   27.4556 C.ar    1  UNL1        0.0369
      4 C          -0.6857    2.6872   26.7965 C.ar    1  UNL1        0.1384
      5 C          -0.7370    1.3727   27.5171 C.ar    1  UNL1        0.0369
      6 C          -0.1612    1.2507   28.8968 C.ar    1  UNL1        0.0043
      7 O           2.7690    1.9553   35.0748 O.2     1  UNL1       -0.2734
      8 C           2.1932    2.0773   33.6950 C.2     1  UNL1        0.2410
      9 N           2.4111    0.9834   32.6920 N.am    1  UNL1       -0.2062
     10 N           1.8353    1.1054   31.3123 N.2     1  UNL1       -0.1836
     11 C           1.0417    2.3212   30.9356 C.2     1  UNL1        0.0763
     12 C           0.8238    3.4151   31.9387 C.3     1  UNL1        0.0509
     13 C           0.6060    4.5090   32.9417 C.3     1  UNL1        0.0160
     14 C           1.3996    3.2932   33.3184 C.3     1  UNL1        0.0841
     15 H           2.9319    0.1854   32.9393 H       1  UNL1        0.1772
     16 O          -1.2615    2.8092   25.4168 O.3     1  UNL1       -0.4791
     17 C          -2.6377    3.3744   25.2257 C.3     1  UNL1        0.1687
     18 C          -3.1796    3.5777   23.8419 C.3     1  UNL1        0.0609
     19 C          -4.5559    4.1429   23.6509 C.3     1  UNL1        0.0758
     20 N          -5.3902    4.5049   24.8437 N.3     1  UNL1       -0.2737
     21 C          -4.8483    4.3016   26.2276 C.3     1  UNL1        0.0758
     22 C          -3.4721    3.7364   26.4186 C.3     1  UNL1        0.0609
     23 C          -6.7665    5.0701   24.6527 C.3     1  UNL1        0.0575
     24 C          -7.5126    6.2520   25.1970 C.3     1  UNL1        0.0160
     25 C          -8.7128    5.8694   24.3826 C.3     1  UNL1        0.0028
     26 C          -7.9666    4.6875   23.8382 C.3     1  UNL1        0.0160
@<TRIPOS>BOND
     1     7     8    2
     2     8     9   am
     3     9    10    1
     4    10    11    2
     5    11     1    1
     6     1     2   ar
     7     2     3   ar
     8     3     4   ar
     9     4    16    1
    10    16    17    1
    11    17    18    1
    12    18    19    1
    13    19    20    1
    14    20    23    1
    15    23    24    1
    16    24    25    1
    17    25    26    1
    18    20    21    1
    19    21    22    1
    20     4     5   ar
    21     5     6   ar
    22    11    12    1
    23    12    13    1
    24    14    13    1
    25    14     8    1
    26     6     1   ar
    27    14    12    1
    28    22    17    1
    29    26    23    1
    30     9    15    1
