@<TRIPOS>MOLECULE
*****
 46 51 0 0 0
SMALL
GASTEIGER

@<TRIPOS>ATOM
      1 C          -4.7289    3.5343   21.2552 C.3     1  UNL1        0.0821
      2 C          -5.8997    4.1648   20.5613 C.3     1  UNL1        0.0194
      3 C          -5.4215    4.7111   19.2487 C.3     1  UNL1        0.0188
      4 C          -3.9550    4.4183   19.1314 C.3     1  UNL1        0.0722
      5 N          -3.5270    3.6910   20.3715 N.3     1  UNL1       -0.2721
      6 C          -4.7553    2.8647   22.5971 C.3     1  UNL1        0.1465
      7 O          -6.9022    4.3044   24.1197 O.2     1  UNL1       -0.2655
      8 C          -5.4798    4.3631   24.5921 C.ar    1  UNL1        0.2764
      9 C          -5.1308    5.1417   25.8258 C.ar    1  UNL1        0.0618
     10 C          -6.2042    5.8615   26.5871 C.ar    1  UNL1        0.0255
     11 C          -5.8552    6.6401   27.8208 C.ar    1  UNL1        0.0990
     12 N          -4.4327    6.6989   28.2932 N.ar    1  UNL1       -0.2423
     13 C          -3.3592    5.9790   27.5319 C.ar    1  UNL1        0.1002
     14 C          -3.7083    5.2004   26.2982 C.ar    1  UNL1        0.0394
     15 C          -2.6349    4.4806   25.5370 C.ar    1  UNL1        0.0847
     16 N          -2.9839    3.7020   24.3033 N.ar    1  UNL1       -0.1708
     17 N          -4.4063    3.6433   23.8308 N.ar    1  UNL1       -0.2156
     18 C          -1.2124    4.5393   26.0094 C.3     1  UNL1        0.0739
     19 C          -0.5986    3.3520   26.6903 C.ar    1  UNL1       -0.0161
     20 C          -1.4716    2.2379   27.1868 C.ar    1  UNL1       -0.0030
     21 C          -0.8578    1.0506   27.8677 C.ar    1  UNL1        0.0111
     22 C           0.6290    0.9775   28.0520 C.ar    1  UNL1        0.0577
     23 CL          1.2428   -0.2099   28.7329 Cl      1  UNL1       -0.0822
     24 C           1.5020    2.0916   27.5555 C.ar    1  UNL1        0.0111
     25 C           0.8882    3.2788   26.8746 C.ar    1  UNL1       -0.0030
     26 C          -2.1404    3.2055   20.6747 C.3     1  UNL1        0.0721
     27 C          -0.9746    3.7260   19.8873 C.3     1  UNL1        0.0177
     28 C          -0.5111    2.9957   18.6619 C.3     1  UNL1        0.0061
     29 C           0.9522    2.7466   18.4458 C.3     1  UNL1        0.0264
     30 C           1.5563    1.4328   18.8446 C.ar    1  UNL1       -0.0220
     31 C           2.9096    1.0422   18.3290 C.ar    1  UNL1       -0.0012
     32 C           3.5137   -0.2716   18.7278 C.ar    1  UNL1        0.0366
     33 C           2.7644   -1.1948   19.6422 C.ar    1  UNL1        0.1385
     34 C           1.4111   -0.8042   20.1578 C.ar    1  UNL1        0.0366
     35 C           0.8070    0.5095   19.7590 C.ar    1  UNL1       -0.0012
     36 O           3.3685   -2.5086   20.0411 O.3     1  UNL1       -0.4754
     37 C           4.3471   -2.5703   21.1762 C.3     1  UNL1        0.2068
     38 C           3.9692   -2.0276   22.5225 C.3     1  UNL1        0.0646
     39 C           4.3675   -0.6338   22.9080 C.3     1  UNL1        0.0759
     40 N           3.3513    0.4693   22.8881 N.3     1  UNL1       -0.2726
     41 C           2.1228    0.2376   23.7168 C.3     1  UNL1        0.0721
     42 C           0.9374    1.1376   23.9042 C.3     1  UNL1        0.0173
     43 C           0.6880    2.4917   23.3091 C.3     1  UNL1        0.0015
     44 C           1.5622    3.2802   22.3796 C.3     1  UNL1        0.0015
     45 C           2.9018    2.9094   21.8157 C.3     1  UNL1        0.0173
     46 C           3.6981    1.6585   22.0419 C.3     1  UNL1        0.0721
@<TRIPOS>BOND
     1     7     8    2
     2     8     9   ar
     3     9    10   ar
     4    10    11   ar
     5    11    12   ar
     6    12    13   ar
     7    13    14   ar
     8    14    15   ar
     9    15    18    1
    10    18    19    1
    11    19    20   ar
    12    20    21   ar
    13    21    22   ar
    14    22    23    1
    15    22    24   ar
    16    24    25   ar
    17    15    16   ar
    18    16    17   ar
    19    17     6    1
    20     1     6    1
    21     1     2    1
    22     2     3    1
    23     3     4    1
    24     4     5    1
    25     5    26    1
    26    26    27    1
    27    27    28    1
    28    28    29    1
    29    29    30    1
    30    30    31   ar
    31    31    32   ar
    32    32    33   ar
    33    33    36    1
    34    36    37    1
    35    37    38    1
    36    38    39    1
    37    39    40    1
    38    40    41    1
    39    41    42    1
    40    42    43    1
    41    43    44    1
    42    44    45    1
    43    45    46    1
    44    33    34   ar
    45    34    35   ar
    46    17     8   ar
    47     5     1    1
    48    35    30   ar
    49    14     9   ar
    50    25    19   ar
    51    46    40    1
@<TRIPOS>MOLECULE
*****
 46 51 0 0 0
SMALL
GASTEIGER

@<TRIPOS>ATOM
      1 C           5.7158   -3.4011   20.6869 C.3     1  UNL1        0.0821
      2 C           4.5434   -4.2799   21.0082 C.3     1  UNL1        0.0194
      3 C           3.7980   -4.5428   19.7333 C.3     1  UNL1        0.0188
      4 C           4.5098   -3.8265   18.6240 C.3     1  UNL1        0.0722
      5 N           5.6951   -3.1209   19.2134 N.3     1  UNL1       -0.2721
      6 C           6.7307   -2.8920   21.6670 C.3     1  UNL1        0.1465
      7 O           7.9531   -5.6284   21.8016 O.2     1  UNL1       -0.2655
      8 C           7.5119   -4.9413   23.0599 C.ar    1  UNL1        0.2764
      9 C           7.6819   -5.6224   24.3855 C.ar    1  UNL1        0.0618
     10 C           8.2931   -6.9906   24.4528 C.ar    1  UNL1        0.0255
     11 C           8.4631   -7.6717   25.7784 C.ar    1  UNL1        0.0990
     12 N           8.0220   -6.9846   27.0366 N.ar    1  UNL1       -0.2423
     13 C           7.4108   -5.6164   26.9694 C.ar    1  UNL1        0.1002
     14 C           7.2408   -4.9353   25.6438 C.ar    1  UNL1        0.0394
     15 C           6.6296   -3.5671   25.5765 C.ar    1  UNL1        0.0847
     16 N           6.4596   -2.8860   24.2509 N.ar    1  UNL1       -0.1708
     17 N           6.9007   -3.5731   22.9926 N.ar    1  UNL1       -0.2156
     18 C           6.1885   -2.8801   26.8347 C.3     1  UNL1        0.0739
     19 C           5.4542   -1.5743   26.7584 C.ar    1  UNL1       -0.0161
     20 C           4.0096   -1.5018   27.1556 C.ar    1  UNL1       -0.0030
     21 C           3.2754   -0.1961   27.0792 C.ar    1  UNL1        0.0111
     22 C           3.9858    1.0373   26.6057 C.ar    1  UNL1        0.0577
     23 CL          3.2515    2.3431   26.5294 Cl      1  UNL1       -0.0822
     24 C           5.4304    0.9648   26.2085 C.ar    1  UNL1        0.0111
     25 C           6.1646   -0.3409   26.2849 C.ar    1  UNL1       -0.0030
     26 C           6.6856   -2.2824   18.4614 C.3     1  UNL1        0.0721
     27 C           6.7550   -0.8040   18.7052 C.3     1  UNL1        0.0177
     28 C           5.7995    0.1171   18.0063 C.3     1  UNL1        0.0061
     29 C           4.4426   -0.3769   17.6005 C.3     1  UNL1        0.0264
     30 C           3.2344    0.0048   18.4033 C.ar    1  UNL1       -0.0220
     31 C           2.6587    1.3846   18.2823 C.ar    1  UNL1       -0.0012
     32 C           1.4505    1.7663   19.0851 C.ar    1  UNL1        0.0366
     33 C           0.8180    0.7682   20.0091 C.ar    1  UNL1        0.1385
     34 C           1.3937   -0.6115   20.1302 C.ar    1  UNL1        0.0366
     35 C           2.6019   -0.9933   19.3273 C.ar    1  UNL1       -0.0012
     36 O          -0.3902    1.1500   20.8120 O.3     1  UNL1       -0.4754
     37 C          -0.5203    2.5420   21.3554 C.3     1  UNL1        0.2068
     38 C          -0.3811    2.7880   22.8285 C.3     1  UNL1        0.0646
     39 C           0.9801    2.9582   23.4352 C.3     1  UNL1        0.0759
     40 N           2.0843    2.0075   23.0788 N.3     1  UNL1       -0.2726
     41 C           3.1766    2.5716   22.2195 C.3     1  UNL1        0.0721
     42 C           4.4047    1.8860   21.6980 C.3     1  UNL1        0.0173
     43 C           4.8435    0.4669   21.9070 C.3     1  UNL1        0.0015
     44 C           4.1628   -0.6170   22.6891 C.3     1  UNL1        0.0015
     45 C           2.8751   -0.5496   23.4553 C.3     1  UNL1        0.0173
     46 C           1.9500    0.6184   23.6288 C.3     1  UNL1        0.0721
@<TRIPOS>BOND
     1     7     8    2
     2     8     9   ar
     3     9    10   ar
     4    10    11   ar
     5    11    12   ar
     6    12    13   ar
     7    13    14   ar
     8    14    15   ar
     9    15    18    1
    10    18    19    1
    11    19    20   ar
    12    20    21   ar
    13    21    22   ar
    14    22    23    1
    15    22    24   ar
    16    24    25   ar
    17    15    16   ar
    18    16    17   ar
    19    17     6    1
    20     1     6    1
    21     1     2    1
    22     2     3    1
    23     3     4    1
    24     4     5    1
    25     5    26    1
    26    26    27    1
    27    27    28    1
    28    28    29    1
    29    29    30    1
    30    30    31   ar
    31    31    32   ar
    32    32    33   ar
    33    33    36    1
    34    36    37    1
    35    37    38    1
    36    38    39    1
    37    39    40    1
    38    40    41    1
    39    41    42    1
    40    42    43    1
    41    43    44    1
    42    44    45    1
    43    45    46    1
    44    33    34   ar
    45    34    35   ar
    46    17     8   ar
    47     5     1    1
    48    35    30   ar
    49    14     9   ar
    50    25    19   ar
    51    46    40    1
@<TRIPOS>MOLECULE
*****
 46 51 0 0 0
SMALL
GASTEIGER

@<TRIPOS>ATOM
      1 C          -4.3136    3.6199   20.4389 C.3     1  UNL1        0.0821
      2 C          -5.0712    4.4088   19.4125 C.3     1  UNL1        0.0194
      3 C          -4.0780    5.0004   18.4567 C.3     1  UNL1        0.0188
      4 C          -2.7065    4.5771   18.8924 C.3     1  UNL1        0.0722
      5 N          -2.8521    3.7239   20.1175 N.3     1  UNL1       -0.2721
      6 C          -4.9123    2.8604   21.5855 C.3     1  UNL1        0.1465
      7 O          -7.2300    4.5045   22.5473 O.2     1  UNL1       -0.2655
      8 C          -6.0526    4.2698   23.4464 C.ar    1  UNL1        0.2764
      9 C          -6.0340    4.8572   24.8265 C.ar    1  UNL1        0.0618
     10 C          -7.1928    5.6793   25.3074 C.ar    1  UNL1        0.0255
     11 C          -7.1742    6.2667   26.6875 C.ar    1  UNL1        0.0990
     12 N          -5.9967    6.0320   27.5867 N.ar    1  UNL1       -0.2423
     13 C          -4.8378    5.2100   27.1058 C.ar    1  UNL1        0.1002
     14 C          -4.8564    4.6226   25.7257 C.ar    1  UNL1        0.0394
     15 C          -3.6976    3.8005   25.2448 C.ar    1  UNL1        0.0847
     16 N          -3.7162    3.2131   23.8647 N.ar    1  UNL1       -0.1708
     17 N          -4.8937    3.4478   22.9655 N.ar    1  UNL1       -0.2156
     18 C          -2.5202    3.5659   26.1439 C.3     1  UNL1        0.0739
     19 C          -1.2160    3.1018   25.5662 C.ar    1  UNL1       -0.0161
     20 C          -0.4398    4.0002   24.6494 C.ar    1  UNL1       -0.0030
     21 C           0.8643    3.5361   24.0717 C.ar    1  UNL1        0.0111
     22 C           1.3923    2.1736   24.4108 C.ar    1  UNL1        0.0577
     23 CL          2.6966    1.7096   23.8330 Cl      1  UNL1       -0.0822
     24 C           0.6162    1.2753   25.3275 C.ar    1  UNL1        0.0111
     25 C          -0.6880    1.7394   25.9052 C.ar    1  UNL1       -0.0030
     26 C          -1.7328    3.0866   20.8862 C.3     1  UNL1        0.0721
     27 C          -0.5070    2.6067   20.1670 C.3     1  UNL1        0.0177
     28 C           0.4329    1.6521   20.8416 C.3     1  UNL1        0.0061
     29 C           0.4731    0.2137   20.4180 C.3     1  UNL1        0.0264
     30 C           1.6519   -0.3101   19.6524 C.ar    1  UNL1       -0.0220
     31 C           2.0440    0.3257   18.3517 C.ar    1  UNL1       -0.0012
     32 C           3.2228   -0.1981   17.5861 C.ar    1  UNL1        0.0366
     33 C           4.0095   -1.3577   18.1213 C.ar    1  UNL1        0.1385
     34 C           3.6174   -1.9934   19.4221 C.ar    1  UNL1        0.0366
     35 C           2.4386   -1.4696   20.1876 C.ar    1  UNL1       -0.0012
     36 O           5.1883   -1.8814   17.3558 O.3     1  UNL1       -0.4754
     37 C           6.4411   -2.2719   18.0824 C.3     1  UNL1        0.2068
     38 C           7.1001   -1.3006   19.0164 C.3     1  UNL1        0.0646
     39 C           7.3082    0.1233   18.5934 C.3     1  UNL1        0.0759
     40 N           6.2468    1.1485   18.8625 N.3     1  UNL1       -0.2726
     41 C           5.9905    2.1263   17.7544 C.3     1  UNL1        0.0721
     42 C           5.0062    3.2576   17.7142 C.3     1  UNL1        0.0173
     43 C           4.0350    3.6902   18.7723 C.3     1  UNL1        0.0015
     44 C           3.8082    3.0985   20.1319 C.3     1  UNL1        0.0015
     45 C           4.4967    1.9281   20.7692 C.3     1  UNL1        0.0173
     46 C           5.5819    1.0602   20.2043 C.3     1  UNL1        0.0721
@<TRIPOS>BOND
     1     7     8    2
     2     8     9   ar
     3     9    10   ar
     4    10    11   ar
     5    11    12   ar
     6    12    13   ar
     7    13    14   ar
     8    14    15   ar
     9    15    18    1
    10    18    19    1
    11    19    20   ar
    12    20    21   ar
    13    21    22   ar
    14    22    23    1
    15    22    24   ar
    16    24    25   ar
    17    15    16   ar
    18    16    17   ar
    19    17     6    1
    20     1     6    1
    21     1     2    1
    22     2     3    1
    23     3     4    1
    24     4     5    1
    25     5    26    1
    26    26    27    1
    27    27    28    1
    28    28    29    1
    29    29    30    1
    30    30    31   ar
    31    31    32   ar
    32    32    33   ar
    33    33    36    1
    34    36    37    1
    35    37    38    1
    36    38    39    1
    37    39    40    1
    38    40    41    1
    39    41    42    1
    40    42    43    1
    41    43    44    1
    42    44    45    1
    43    45    46    1
    44    33    34   ar
    45    34    35   ar
    46    17     8   ar
    47     5     1    1
    48    35    30   ar
    49    14     9   ar
    50    25    19   ar
    51    46    40    1
@<TRIPOS>MOLECULE
*****
 46 51 0 0 0
SMALL
GASTEIGER

@<TRIPOS>ATOM
      1 C           1.7509    3.1920   20.7884 C.3     1  UNL1        0.0821
      2 C           0.7978    3.6191   21.8651 C.3     1  UNL1        0.0194
      3 C          -0.5263    2.9671   21.5973 C.3     1  UNL1        0.0188
      4 C          -0.3916    2.1370   20.3552 C.3     1  UNL1        0.0722
      5 N           1.0158    2.2760   19.8553 N.3     1  UNL1       -0.2721
      6 C           3.1869    3.6078   20.6663 C.3     1  UNL1        0.1465
      7 O           3.7986    3.7571   23.5995 O.2     1  UNL1       -0.2655
      8 C           4.5746    2.8238   22.7181 C.ar    1  UNL1        0.2764
      9 C           5.6564    1.9652   23.3033 C.ar    1  UNL1        0.0618
     10 C           5.9623    2.0398   24.7698 C.ar    1  UNL1        0.0255
     11 C           7.0441    1.1812   25.3550 C.ar    1  UNL1        0.0990
     12 N           7.8200    0.2479   24.4736 N.ar    1  UNL1       -0.2423
     13 C           7.5142    0.1733   23.0069 C.ar    1  UNL1        0.1002
     14 C           6.4323    1.0319   22.4218 C.ar    1  UNL1        0.0394
     15 C           6.1264    0.9573   20.9552 C.ar    1  UNL1        0.0847
     16 N           5.0446    1.8159   20.3701 N.ar    1  UNL1       -0.1708
     17 N           4.2687    2.7492   21.2515 N.ar    1  UNL1       -0.2156
     18 C           6.9024    0.0240   20.0738 C.3     1  UNL1        0.0739
     19 C           6.3339   -1.3176   19.7175 C.ar    1  UNL1       -0.0161
     20 C           6.5391   -2.4867   20.6347 C.ar    1  UNL1       -0.0030
     21 C           5.9706   -3.8282   20.2783 C.ar    1  UNL1        0.0111
     22 C           5.1969   -4.0007   19.0049 C.ar    1  UNL1        0.0577
     23 CL          4.6285   -5.3424   18.6486 Cl      1  UNL1       -0.0822
     24 C           4.9917   -2.8317   18.0878 C.ar    1  UNL1        0.0111
     25 C           5.5602   -1.4901   18.4441 C.ar    1  UNL1       -0.0030
     26 C           1.5877    1.6151   18.6362 C.3     1  UNL1        0.0721
     27 C           2.1185    0.2147   18.7216 C.3     1  UNL1        0.0177
     28 C           1.7782   -0.6457   19.9021 C.3     1  UNL1        0.0061
     29 C           2.8717   -1.2982   20.6947 C.3     1  UNL1        0.0264
     30 C           3.0253   -0.9912   22.1549 C.ar    1  UNL1       -0.0220
     31 C           2.1813    0.0737   22.7903 C.ar    1  UNL1       -0.0012
     32 C           2.3349    0.3807   24.2504 C.ar    1  UNL1        0.0366
     33 C           3.3326   -0.3771   25.0753 C.ar    1  UNL1        0.1385
     34 C           4.1766   -1.4419   24.4400 C.ar    1  UNL1        0.0366
     35 C           4.0230   -1.7490   22.9798 C.ar    1  UNL1       -0.0012
     36 O           3.4862   -0.0700   26.5355 O.3     1  UNL1       -0.4754
     37 C           3.6620   -1.1861   27.5221 C.3     1  UNL1        0.2068
     38 C           3.8178   -0.8789   28.9820 C.3     1  UNL1        0.0646
     39 C           2.6400   -0.3992   29.7774 C.3     1  UNL1        0.0759
     40 N           1.6088    0.4801   29.1346 N.3     1  UNL1       -0.2726
     41 C           2.0135    1.9085   28.9206 C.3     1  UNL1        0.0721
     42 C           1.2185    3.0244   28.3099 C.3     1  UNL1        0.0173
     43 C          -0.1775    2.9874   27.7624 C.3     1  UNL1        0.0015
     44 C          -1.1233    1.8254   27.6902 C.3     1  UNL1        0.0015
     45 C          -0.9067    0.4135   28.1478 C.3     1  UNL1        0.0173
     46 C           0.3091   -0.1854   28.7906 C.3     1  UNL1        0.0721
@<TRIPOS>BOND
     1     7     8    2
     2     8     9   ar
     3     9    10   ar
     4    10    11   ar
     5    11    12   ar
     6    12    13   ar
     7    13    14   ar
     8    14    15   ar
     9    15    18    1
    10    18    19    1
    11    19    20   ar
    12    20    21   ar
    13    21    22   ar
    14    22    23    1
    15    22    24   ar
    16    24    25   ar
    17    15    16   ar
    18    16    17   ar
    19    17     6    1
    20     1     6    1
    21     1     2    1
    22     2     3    1
    23     3     4    1
    24     4     5    1
    25     5    26    1
    26    26    27    1
    27    27    28    1
    28    28    29    1
    29    29    30    1
    30    30    31   ar
    31    31    32   ar
    32    32    33   ar
    33    33    36    1
    34    36    37    1
    35    37    38    1
    36    38    39    1
    37    39    40    1
    38    40    41    1
    39    41    42    1
    40    42    43    1
    41    43    44    1
    42    44    45    1
    43    45    46    1
    44    33    34   ar
    45    34    35   ar
    46    17     8   ar
    47     5     1    1
    48    35    30   ar
    49    14     9   ar
    50    25    19   ar
    51    46    40    1
@<TRIPOS>MOLECULE
*****
 46 51 0 0 0
SMALL
GASTEIGER

@<TRIPOS>ATOM
      1 C           6.0094   -2.0719   24.3576 C.3     1  UNL1        0.0821
      2 C           5.7657   -0.8537   25.1982 C.3     1  UNL1        0.0194
      3 C           4.3401   -0.4313   24.9998 C.3     1  UNL1        0.0188
      4 C           3.7028   -1.3885   24.0366 C.3     1  UNL1        0.0722
      5 N           4.7345   -2.4024   23.6397 N.3     1  UNL1       -0.2721
      6 C           7.3013   -2.8270   24.2532 C.3     1  UNL1        0.1465
      7 O           7.3639   -5.7742   23.6965 O.2     1  UNL1       -0.2655
      8 C           7.7301   -5.2601   25.0571 C.ar    1  UNL1        0.2764
      9 C           8.1276   -6.2195   26.1395 C.ar    1  UNL1        0.0618
     10 C           8.1589   -7.6931   25.8611 C.ar    1  UNL1        0.0255
     11 C           8.5564   -8.6526   26.9435 C.ar    1  UNL1        0.0990
     12 N           8.9226   -8.1384   28.3042 N.ar    1  UNL1       -0.2423
     13 C           8.8913   -6.6648   28.5826 C.ar    1  UNL1        0.1002
     14 C           8.4938   -5.7053   27.5002 C.ar    1  UNL1        0.0394
     15 C           8.4625   -4.2317   27.7786 C.ar    1  UNL1        0.0847
     16 N           8.0650   -3.2723   26.6962 N.ar    1  UNL1       -0.1708
     17 N           7.6988   -3.7864   25.3356 N.ar    1  UNL1       -0.2156
     18 C           8.8287   -3.7176   29.1393 C.3     1  UNL1        0.0739
     19 C           7.7534   -3.4064   30.1379 C.ar    1  UNL1       -0.0161
     20 C           7.5257   -4.3214   31.3044 C.ar    1  UNL1       -0.0030
     21 C           6.4505   -4.0102   32.3029 C.ar    1  UNL1        0.0111
     22 C           5.6031   -2.7840   32.1349 C.ar    1  UNL1        0.0577
     23 CL          4.5279   -2.4728   33.1335 Cl      1  UNL1       -0.0822
     24 C           5.8308   -1.8690   30.9684 C.ar    1  UNL1        0.0111
     25 C           6.9060   -2.1802   29.9699 C.ar    1  UNL1       -0.0030
     26 C           4.5276   -3.5461   22.6915 C.3     1  UNL1        0.0721
     27 C           5.0977   -3.4837   21.3054 C.3     1  UNL1        0.0177
     28 C           4.3361   -4.0703   20.1541 C.3     1  UNL1        0.0061
     29 C           4.8565   -3.9186   18.7554 C.3     1  UNL1        0.0264
     30 C           5.1826   -2.5559   18.2202 C.ar    1  UNL1       -0.0220
     31 C           4.1132   -1.7303   17.5685 C.ar    1  UNL1       -0.0012
     32 C           4.4393   -0.3675   17.0333 C.ar    1  UNL1        0.0366
     33 C           5.8350    0.1697   17.1497 C.ar    1  UNL1        0.1385
     34 C           6.9044   -0.6559   17.8013 C.ar    1  UNL1        0.0366
     35 C           6.5783   -2.0186   18.3366 C.ar    1  UNL1       -0.0012
     36 O           6.1611    1.5325   16.6145 O.3     1  UNL1       -0.4754
     37 C           6.0532    2.7339   17.5060 C.3     1  UNL1        0.2068
     38 C           4.7648    3.4984   17.5817 C.3     1  UNL1        0.0646
     39 C           3.9381    3.4531   18.8324 C.3     1  UNL1        0.0759
     40 N           3.3028    2.1650   19.2653 N.3     1  UNL1       -0.2726
     41 C           4.1007    1.3374   20.2287 C.3     1  UNL1        0.0721
     42 C           3.7466    0.0151   20.8423 C.3     1  UNL1        0.0173
     43 C           2.5069   -0.8058   20.6441 C.3     1  UNL1        0.0015
     44 C           1.3153   -0.5074   19.7832 C.3     1  UNL1        0.0015
     45 C           1.0691    0.6857   18.9081 C.3     1  UNL1        0.0173
     46 C           1.9535    1.8751   18.6775 C.3     1  UNL1        0.0721
@<TRIPOS>BOND
     1     7     8    2
     2     8     9   ar
     3     9    10   ar
     4    10    11   ar
     5    11    12   ar
     6    12    13   ar
     7    13    14   ar
     8    14    15   ar
     9    15    18    1
    10    18    19    1
    11    19    20   ar
    12    20    21   ar
    13    21    22   ar
    14    22    23    1
    15    22    24   ar
    16    24    25   ar
    17    15    16   ar
    18    16    17   ar
    19    17     6    1
    20     1     6    1
    21     1     2    1
    22     2     3    1
    23     3     4    1
    24     4     5    1
    25     5    26    1
    26    26    27    1
    27    27    28    1
    28    28    29    1
    29    29    30    1
    30    30    31   ar
    31    31    32   ar
    32    32    33   ar
    33    33    36    1
    34    36    37    1
    35    37    38    1
    36    38    39    1
    37    39    40    1
    38    40    41    1
    39    41    42    1
    40    42    43    1
    41    43    44    1
    42    44    45    1
    43    45    46    1
    44    33    34   ar
    45    34    35   ar
    46    17     8   ar
    47     5     1    1
    48    35    30   ar
    49    14     9   ar
    50    25    19   ar
    51    46    40    1
@<TRIPOS>MOLECULE
*****
 46 51 0 0 0
SMALL
GASTEIGER

@<TRIPOS>ATOM
      1 C           5.3800   -1.0475   24.2329 C.3     1  UNL1        0.0821
      2 C           6.1650    0.2198   24.0670 C.3     1  UNL1        0.0194
      3 C           7.0804    0.0475   22.8912 C.3     1  UNL1        0.0188
      4 C           6.8610   -1.3264   22.3304 C.3     1  UNL1        0.0722
      5 N           5.8101   -2.0031   23.1596 N.3     1  UNL1       -0.2721
      6 C           4.3463   -1.3126   25.2870 C.3     1  UNL1        0.1465
      7 O           3.6530   -0.2313   27.9981 O.2     1  UNL1       -0.2655
      8 C           2.8356    0.1605   26.8029 C.ar    1  UNL1        0.2764
      9 C           1.6717    1.0929   26.9633 C.ar    1  UNL1        0.0618
     10 C           1.3250    1.6335   28.3188 C.ar    1  UNL1        0.0255
     11 C           0.1610    2.5660   28.4792 C.ar    1  UNL1        0.0990
     12 N          -0.6563    2.9577   27.2840 N.ar    1  UNL1       -0.2423
     13 C          -0.3097    2.4171   25.9284 C.ar    1  UNL1        0.1002
     14 C           0.8543    1.4846   25.7681 C.ar    1  UNL1        0.0394
     15 C           1.2010    0.9440   24.4125 C.ar    1  UNL1        0.0847
     16 N           2.3650    0.0116   24.2522 N.ar    1  UNL1       -0.1708
     17 N           3.1823   -0.3802   25.4473 N.ar    1  UNL1       -0.2156
     18 C           0.3836    1.3358   23.2174 C.3     1  UNL1        0.0739
     19 C           0.7959    2.5091   22.3787 C.ar    1  UNL1       -0.0161
     20 C          -0.1579    3.0856   21.3749 C.ar    1  UNL1       -0.0030
     21 C           0.2544    4.2589   20.5363 C.ar    1  UNL1        0.0111
     22 C           1.6206    4.8557   20.7015 C.ar    1  UNL1        0.0577
     23 CL          2.0329    6.0291   19.8629 Cl      1  UNL1       -0.0822
     24 C           2.5745    4.2793   21.7054 C.ar    1  UNL1        0.0111
     25 C           2.1621    3.1060   22.5440 C.ar    1  UNL1       -0.0030
     26 C           5.2820   -3.3916   22.9520 C.3     1  UNL1        0.0721
     27 C           4.2860   -3.6602   21.8630 C.3     1  UNL1        0.0177
     28 C           4.7412   -4.2401   20.5568 C.3     1  UNL1        0.0061
     29 C           4.1514   -3.7441   19.2698 C.3     1  UNL1        0.0264
     30 C           4.7462   -2.5505   18.5831 C.ar    1  UNL1       -0.0220
     31 C           6.1761   -2.1748   18.8364 C.ar    1  UNL1       -0.0012
     32 C           6.7709   -0.9812   18.1496 C.ar    1  UNL1        0.0366
     33 C           5.9358   -0.1633   17.2096 C.ar    1  UNL1        0.1385
     34 C           4.5059   -0.5391   16.9563 C.ar    1  UNL1        0.0366
     35 C           3.9111   -1.7326   17.6431 C.ar    1  UNL1       -0.0012
     36 O           6.5306    1.0302   16.5229 O.3     1  UNL1       -0.4754
     37 C           6.5866    2.3518   17.2302 C.3     1  UNL1        0.2068
     38 C           5.3242    3.1218   17.4820 C.3     1  UNL1        0.0646
     39 C           4.7166    3.1382   18.8533 C.3     1  UNL1        0.0759
     40 N           3.8027    2.0286   19.2821 N.3     1  UNL1       -0.2726
     41 C           4.3380    1.1203   20.3490 C.3     1  UNL1        0.0721
     42 C           3.6772   -0.0669   20.9847 C.3     1  UNL1        0.0173
     43 C           2.3180   -0.6389   20.7103 C.3     1  UNL1        0.0015
     44 C           1.2838   -0.1650   19.7326 C.3     1  UNL1        0.0015
     45 C           1.3535    0.9979   18.7877 C.3     1  UNL1        0.0173
     46 C           2.4744    1.9742   18.5872 C.3     1  UNL1        0.0721
@<TRIPOS>BOND
     1     7     8    2
     2     8     9   ar
     3     9    10   ar
     4    10    11   ar
     5    11    12   ar
     6    12    13   ar
     7    13    14   ar
     8    14    15   ar
     9    15    18    1
    10    18    19    1
    11    19    20   ar
    12    20    21   ar
    13    21    22   ar
    14    22    23    1
    15    22    24   ar
    16    24    25   ar
    17    15    16   ar
    18    16    17   ar
    19    17     6    1
    20     1     6    1
    21     1     2    1
    22     2     3    1
    23     3     4    1
    24     4     5    1
    25     5    26    1
    26    26    27    1
    27    27    28    1
    28    28    29    1
    29    29    30    1
    30    30    31   ar
    31    31    32   ar
    32    32    33   ar
    33    33    36    1
    34    36    37    1
    35    37    38    1
    36    38    39    1
    37    39    40    1
    38    40    41    1
    39    41    42    1
    40    42    43    1
    41    43    44    1
    42    44    45    1
    43    45    46    1
    44    33    34   ar
    45    34    35   ar
    46    17     8   ar
    47     5     1    1
    48    35    30   ar
    49    14     9   ar
    50    25    19   ar
    51    46    40    1
@<TRIPOS>MOLECULE
*****
 46 51 0 0 0
SMALL
GASTEIGER

@<TRIPOS>ATOM
      1 C          -3.7349    3.4447   20.6827 C.3     1  UNL1        0.0821
      2 C          -4.1603    3.9546   19.3377 C.3     1  UNL1        0.0194
      3 C          -2.9586    4.5507   18.6666 C.3     1  UNL1        0.0188
      4 C          -1.7903    4.4092   19.5968 C.3     1  UNL1        0.0722
      5 N          -2.2701    3.7256   20.8428 N.3     1  UNL1       -0.2721
      6 C          -4.6190    2.7720   21.6905 C.3     1  UNL1        0.1465
      7 O          -7.0956    4.4493   21.9206 O.2     1  UNL1       -0.2655
      8 C          -6.1795    4.2991   23.0987 C.ar    1  UNL1        0.2764
      9 C          -6.5016    4.9875   24.3919 C.ar    1  UNL1        0.0618
     10 C          -7.7399    5.8261   24.5069 C.ar    1  UNL1        0.0255
     11 C          -8.0620    6.5145   25.8001 C.ar    1  UNL1        0.0990
     12 N          -7.1459    6.3643   26.9782 N.ar    1  UNL1       -0.2423
     13 C          -5.9075    5.5256   26.8632 C.ar    1  UNL1        0.1002
     14 C          -5.5854    4.8372   25.5701 C.ar    1  UNL1        0.0394
     15 C          -4.3471    3.9986   25.4550 C.ar    1  UNL1        0.0847
     16 N          -4.0250    3.3101   24.1619 N.ar    1  UNL1       -0.1708
     17 N          -4.9411    3.4604   22.9837 N.ar    1  UNL1       -0.2156
     18 C          -3.4310    3.8483   26.6332 C.3     1  UNL1        0.0739
     19 C          -1.9773    3.5461   26.4192 C.ar    1  UNL1       -0.0161
     20 C          -1.3853    2.2822   26.9687 C.ar    1  UNL1       -0.0030
     21 C           0.0682    1.9800   26.7547 C.ar    1  UNL1        0.0111
     22 C           0.9297    2.9417   25.9912 C.ar    1  UNL1        0.0577
     23 CL          2.3834    2.6394   25.7772 Cl      1  UNL1       -0.0822
     24 C           0.3377    4.2056   25.4417 C.ar    1  UNL1        0.0111
     25 C          -1.1158    4.5078   25.6557 C.ar    1  UNL1       -0.0030
     26 C          -1.4323    3.3831   22.0389 C.3     1  UNL1        0.0721
     27 C          -0.2584    2.4607   21.8931 C.3     1  UNL1        0.0177
     28 C           0.1901    2.0275   20.5290 C.3     1  UNL1        0.0061
     29 C           0.1925    0.5718   20.1673 C.3     1  UNL1        0.0264
     30 C           1.4068   -0.0423   19.5362 C.ar    1  UNL1       -0.0220
     31 C           1.9334   -1.3526   20.0417 C.ar    1  UNL1       -0.0012
     32 C           3.1477   -1.9667   19.4106 C.ar    1  UNL1        0.0366
     33 C           3.8356   -1.2704   18.2739 C.ar    1  UNL1        0.1385
     34 C           3.3090    0.0400   17.7684 C.ar    1  UNL1        0.0366
     35 C           2.0947    0.6541   18.3995 C.ar    1  UNL1       -0.0012
     36 O           5.0499   -1.8844   17.6428 O.3     1  UNL1       -0.4754
     37 C           6.4194   -1.4813   18.1032 C.3     1  UNL1        0.2068
     38 C           6.9523   -1.9924   19.4089 C.3     1  UNL1        0.0646
     39 C           7.0628   -1.0700   20.5865 C.3     1  UNL1        0.0759
     40 N           5.8357   -0.6952   21.3635 N.3     1  UNL1       -0.2726
     41 C           5.2997    0.6824   21.1089 C.3     1  UNL1        0.0721
     42 C           4.1024    1.3479   21.7203 C.3     1  UNL1        0.0173
     43 C           3.1455    0.8001   22.7372 C.3     1  UNL1        0.0015
     44 C           3.1494   -0.5485   23.3938 C.3     1  UNL1        0.0015
     45 C           4.1112   -1.6823   23.1958 C.3     1  UNL1        0.0173
     46 C           5.3067   -1.7477   22.2923 C.3     1  UNL1        0.0721
@<TRIPOS>BOND
     1     7     8    2
     2     8     9   ar
     3     9    10   ar
     4    10    11   ar
     5    11    12   ar
     6    12    13   ar
     7    13    14   ar
     8    14    15   ar
     9    15    18    1
    10    18    19    1
    11    19    20   ar
    12    20    21   ar
    13    21    22   ar
    14    22    23    1
    15    22    24   ar
    16    24    25   ar
    17    15    16   ar
    18    16    17   ar
    19    17     6    1
    20     1     6    1
    21     1     2    1
    22     2     3    1
    23     3     4    1
    24     4     5    1
    25     5    26    1
    26    26    27    1
    27    27    28    1
    28    28    29    1
    29    29    30    1
    30    30    31   ar
    31    31    32   ar
    32    32    33   ar
    33    33    36    1
    34    36    37    1
    35    37    38    1
    36    38    39    1
    37    39    40    1
    38    40    41    1
    39    41    42    1
    40    42    43    1
    41    43    44    1
    42    44    45    1
    43    45    46    1
    44    33    34   ar
    45    34    35   ar
    46    17     8   ar
    47     5     1    1
    48    35    30   ar
    49    14     9   ar
    50    25    19   ar
    51    46    40    1
@<TRIPOS>MOLECULE
*****
 46 51 0 0 0
SMALL
GASTEIGER

@<TRIPOS>ATOM
      1 C           1.5052    1.1868   28.9160 C.3     1  UNL1        0.0821
      2 C           0.2639    0.5061   29.4118 C.3     1  UNL1        0.0194
      3 C          -0.6810    0.3654   28.2553 C.3     1  UNL1        0.0188
      4 C          -0.0236    0.9592   27.0447 C.3     1  UNL1        0.0722
      5 N           1.3275    1.4668   27.4531 N.3     1  UNL1       -0.2721
      6 C           2.7122    1.5276   29.7387 C.3     1  UNL1        0.1465
      7 O           2.8213   -0.4165   32.0210 O.2     1  UNL1       -0.2655
      8 C           3.9037   -0.4175   30.9825 C.ar    1  UNL1        0.2764
      9 C           5.0406   -1.3906   31.0851 C.ar    1  UNL1        0.0618
     10 C           5.0951   -2.3627   32.2262 C.ar    1  UNL1        0.0255
     11 C           6.2320   -3.3358   32.3288 C.ar    1  UNL1        0.0990
     12 N           7.3143   -3.3369   31.2903 N.ar    1  UNL1       -0.2423
     13 C           7.2598   -2.3648   30.1491 C.ar    1  UNL1        0.1002
     14 C           6.1229   -1.3917   30.0465 C.ar    1  UNL1        0.0394
     15 C           6.0683   -0.4197   28.9054 C.ar    1  UNL1        0.0847
     16 N           4.9314    0.5534   28.8028 N.ar    1  UNL1       -0.1708
     17 N           3.8491    0.5545   29.8413 N.ar    1  UNL1       -0.2156
     18 C           7.1506   -0.4208   27.8669 C.3     1  UNL1        0.0739
     19 C           7.2779   -1.5751   26.9174 C.ar    1  UNL1       -0.0161
     20 C           6.1313   -2.5244   26.7329 C.ar    1  UNL1       -0.0030
     21 C           6.2585   -3.6786   25.7835 C.ar    1  UNL1        0.0111
     22 C           7.5324   -3.8835   25.0185 C.ar    1  UNL1        0.0577
     23 CL          7.6597   -5.0378   24.0690 Cl      1  UNL1       -0.0822
     24 C           8.6790   -2.9342   25.2029 C.ar    1  UNL1        0.0111
     25 C           8.5517   -1.7800   26.1524 C.ar    1  UNL1       -0.0030
     26 C           2.3257    2.1368   26.5561 C.3     1  UNL1        0.0721
     27 C           2.7888    1.4510   25.3050 C.3     1  UNL1        0.0177
     28 C           3.7318    0.2879   25.3923 C.3     1  UNL1        0.0061
     29 C           4.9794    0.2696   24.5596 C.3     1  UNL1        0.0264
     30 C           5.2307   -0.8640   23.6100 C.ar    1  UNL1       -0.0220
     31 C           4.1810   -1.9151   23.4022 C.ar    1  UNL1       -0.0012
     32 C           4.4323   -3.0487   22.4525 C.ar    1  UNL1        0.0366
     33 C           5.7334   -3.1311   21.7106 C.ar    1  UNL1        0.1385
     34 C           6.7831   -2.0800   21.9184 C.ar    1  UNL1        0.0366
     35 C           6.5317   -0.9464   22.8681 C.ar    1  UNL1       -0.0012
     36 O           5.9847   -4.2647   20.7609 O.3     1  UNL1       -0.4754
     37 C           5.3775   -4.2428   19.3895 C.3     1  UNL1        0.2068
     38 C           5.4190   -2.9865   18.5710 C.3     1  UNL1        0.0646
     39 C           4.1657   -2.1918   18.3527 C.3     1  UNL1        0.0759
     40 N           3.7635   -1.1386   19.3421 N.3     1  UNL1       -0.2726
     41 C           4.7531   -0.0312   19.5523 C.3     1  UNL1        0.0721
     42 C           4.6486    1.1563   20.4628 C.3     1  UNL1        0.0173
     43 C           3.5285    1.5296   21.3880 C.3     1  UNL1        0.0015
     44 C           2.2363    0.8077   21.6312 C.3     1  UNL1        0.0015
     45 C           1.7451   -0.4659   21.0093 C.3     1  UNL1        0.0173
     46 C           2.4247   -1.3321   19.9906 C.3     1  UNL1        0.0721
@<TRIPOS>BOND
     1     7     8    2
     2     8     9   ar
     3     9    10   ar
     4    10    11   ar
     5    11    12   ar
     6    12    13   ar
     7    13    14   ar
     8    14    15   ar
     9    15    18    1
    10    18    19    1
    11    19    20   ar
    12    20    21   ar
    13    21    22   ar
    14    22    23    1
    15    22    24   ar
    16    24    25   ar
    17    15    16   ar
    18    16    17   ar
    19    17     6    1
    20     1     6    1
    21     1     2    1
    22     2     3    1
    23     3     4    1
    24     4     5    1
    25     5    26    1
    26    26    27    1
    27    27    28    1
    28    28    29    1
    29    29    30    1
    30    30    31   ar
    31    31    32   ar
    32    32    33   ar
    33    33    36    1
    34    36    37    1
    35    37    38    1
    36    38    39    1
    37    39    40    1
    38    40    41    1
    39    41    42    1
    40    42    43    1
    41    43    44    1
    42    44    45    1
    43    45    46    1
    44    33    34   ar
    45    34    35   ar
    46    17     8   ar
    47     5     1    1
    48    35    30   ar
    49    14     9   ar
    50    25    19   ar
    51    46    40    1
@<TRIPOS>MOLECULE
*****
 46 51 0 0 0
SMALL
GASTEIGER

@<TRIPOS>ATOM
      1 C           6.2917   -1.9280   24.1279 C.3     1  UNL1        0.0821
      2 C           6.1347   -0.5914   24.7903 C.3     1  UNL1        0.0194
      3 C           4.7212   -0.1345   24.5827 C.3     1  UNL1        0.0188
      4 C           4.0045   -1.1887   23.7920 C.3     1  UNL1        0.0722
      5 N           4.9753   -2.2972   23.5110 N.3     1  UNL1       -0.2721
      6 C           7.5452   -2.7510   24.0893 C.3     1  UNL1        0.1465
      7 O           7.4049   -5.7047   23.5833 O.2     1  UNL1       -0.2655
      8 C           7.7726   -5.1937   24.9447 C.ar    1  UNL1        0.2764
      9 C           8.0702   -6.1595   26.0532 C.ar    1  UNL1        0.0618
     10 C           8.0000   -7.6363   25.8002 C.ar    1  UNL1        0.0255
     11 C           8.2976   -8.6021   26.9087 C.ar    1  UNL1        0.0990
     12 N           8.6653   -8.0910   28.2702 N.ar    1  UNL1       -0.2423
     13 C           8.7355   -6.6141   28.5232 C.ar    1  UNL1        0.1002
     14 C           8.4379   -5.6484   27.4147 C.ar    1  UNL1        0.0394
     15 C           8.5081   -4.1715   27.6677 C.ar    1  UNL1        0.0847
     16 N           8.2105   -3.2058   26.5592 N.ar    1  UNL1       -0.1708
     17 N           7.8428   -3.7168   25.1978 N.ar    1  UNL1       -0.2156
     18 C           8.8758   -3.6605   29.0291 C.3     1  UNL1        0.0739
     19 C           7.8020   -3.3581   30.0320 C.ar    1  UNL1       -0.0161
     20 C           7.6360   -4.2320   31.2397 C.ar    1  UNL1       -0.0030
     21 C           6.5623   -3.9295   32.2424 C.ar    1  UNL1        0.0111
     22 C           5.6546   -2.7531   32.0375 C.ar    1  UNL1        0.0577
     23 CL          4.5808   -2.4506   33.0403 Cl      1  UNL1       -0.0822
     24 C           5.8206   -1.8791   30.8298 C.ar    1  UNL1        0.0111
     25 C           6.8943   -2.1816   29.8270 C.ar    1  UNL1       -0.0030
     26 C           4.6811   -3.5541   22.7471 C.3     1  UNL1        0.0721
     27 C           5.3360   -3.7955   21.4193 C.3     1  UNL1        0.0177
     28 C           4.5188   -4.2726   20.2556 C.3     1  UNL1        0.0061
     29 C           4.5657   -3.5318   18.9521 C.3     1  UNL1        0.0264
     30 C           3.8247   -2.2367   18.7984 C.ar    1  UNL1       -0.0220
     31 C           4.0364   -1.3918   17.5772 C.ar    1  UNL1       -0.0012
     32 C           3.2954   -0.0968   17.4235 C.ar    1  UNL1        0.0366
     33 C           2.3426    0.3535   18.4910 C.ar    1  UNL1        0.1385
     34 C           2.1310   -0.4914   19.7122 C.ar    1  UNL1        0.0366
     35 C           2.8720   -1.7865   19.8659 C.ar    1  UNL1       -0.0012
     36 O           1.6017    1.6486   18.3373 O.3     1  UNL1       -0.4754
     37 C           2.1613    2.9078   18.9300 C.3     1  UNL1        0.2068
     38 C           3.4939    3.4236   18.4738 C.3     1  UNL1        0.0646
     39 C           4.6948    3.2879   19.3622 C.3     1  UNL1        0.0759
     40 N           5.5117    2.0302   19.3321 N.3     1  UNL1       -0.2726
     41 C           5.4272    1.1699   20.5579 C.3     1  UNL1        0.0721
     42 C           6.1153   -0.1341   20.8346 C.3     1  UNL1        0.0173
     43 C           7.0576   -0.8996   19.9539 C.3     1  UNL1        0.0015
     44 C           7.5448   -0.5504   18.5788 C.3     1  UNL1        0.0015
     45 C           7.2099    0.6506   17.7450 C.3     1  UNL1        0.0173
     46 C           6.3051    1.7991   18.0801 C.3     1  UNL1        0.0721
@<TRIPOS>BOND
     1     7     8    2
     2     8     9   ar
     3     9    10   ar
     4    10    11   ar
     5    11    12   ar
     6    12    13   ar
     7    13    14   ar
     8    14    15   ar
     9    15    18    1
    10    18    19    1
    11    19    20   ar
    12    20    21   ar
    13    21    22   ar
    14    22    23    1
    15    22    24   ar
    16    24    25   ar
    17    15    16   ar
    18    16    17   ar
    19    17     6    1
    20     1     6    1
    21     1     2    1
    22     2     3    1
    23     3     4    1
    24     4     5    1
    25     5    26    1
    26    26    27    1
    27    27    28    1
    28    28    29    1
    29    29    30    1
    30    30    31   ar
    31    31    32   ar
    32    32    33   ar
    33    33    36    1
    34    36    37    1
    35    37    38    1
    36    38    39    1
    37    39    40    1
    38    40    41    1
    39    41    42    1
    40    42    43    1
    41    43    44    1
    42    44    45    1
    43    45    46    1
    44    33    34   ar
    45    34    35   ar
    46    17     8   ar
    47     5     1    1
    48    35    30   ar
    49    14     9   ar
    50    25    19   ar
    51    46    40    1
