@<TRIPOS>MOLECULE
*****
 32 34 0 0 0
SMALL
GASTEIGER

@<TRIPOS>ATOM
      1 C         -10.3570  -18.7769   19.5632 C.3     1  UNL1        0.1152
      2 N          -9.4214  -18.5313   20.7096 N.am    1  UNL1       -0.2729
      3 C          -8.1100  -19.2563   20.7759 C.2     1  UNL1        0.2459
      4 O          -7.7341  -20.2269   19.6958 O.2     1  UNL1       -0.2730
      5 C          -7.1743  -19.0108   21.9224 C.3     1  UNL1        0.1738
      6 N          -5.9170  -19.8186   22.0506 N.pl3   1  UNL1       -0.3253
      7 H          -5.9539  -20.7320   22.4162 H       1  UNL1        0.1473
      8 C          -4.6034  -19.2348   21.6218 C.ar    1  UNL1        0.0450
      9 C          -4.2006  -19.2749   20.1775 C.ar    1  UNL1        0.0142
     10 C          -2.8871  -18.6911   19.7487 C.ar    1  UNL1        0.0051
     11 C          -1.9764  -18.0673   20.7643 C.ar    1  UNL1        0.0715
     12 C          -2.3792  -18.0273   22.2087 C.ar    1  UNL1        0.0051
     13 C          -3.6927  -18.6110   22.6374 C.ar    1  UNL1        0.0142
     14 C          -0.6628  -17.4835   20.3355 C.3     1  UNL1        0.4186
     15 F           0.6507  -16.8997   19.9068 F       1  UNL1       -0.1659
     16 F          -0.2666  -18.8059   19.7487 F       1  UNL1       -0.1659
     17 F          -1.0590  -16.1612   20.9223 F       1  UNL1       -0.1659
     18 C          -9.7973  -17.5607   21.7898 C.3     1  UNL1        0.1139
     19 C         -10.9145  -17.8872   22.7359 C.ar    1  UNL1       -0.0029
     20 C         -12.2629  -17.2569   22.5501 C.ar    1  UNL1       -0.0026
     21 C         -13.3802  -17.5834   23.4963 C.ar    1  UNL1       -0.0003
     22 C         -13.1490  -18.5401   24.6281 C.ar    1  UNL1       -0.0000
     23 C         -11.8006  -19.1704   24.8139 C.ar    1  UNL1       -0.0003
     24 C         -10.6834  -18.8439   23.8678 C.ar    1  UNL1       -0.0026
     25 C          -9.0559  -16.2637   21.9238 C.3     1  UNL1        0.0968
     26 N          -8.4590  -15.8739   23.2436 N.3     1  UNL1       -0.2689
     27 C          -9.1585  -15.9013   24.5702 C.3     1  UNL1        0.0748
     28 C          -8.1896  -15.4326   25.6150 C.3     1  UNL1        0.0480
     29 C          -6.8912  -15.1156   24.9341 C.3     1  UNL1        0.1278
     30 O          -5.6451  -14.6138   25.6015 O.3     1  UNL1       -0.3830
     31 C          -7.0576  -15.3883   23.4684 C.3     1  UNL1        0.1017
     32 H          -4.9500  -14.4890   24.9366 H       1  UNL1        0.2104
@<TRIPOS>BOND
     1     1     2    1
     2     2     3   am
     3     3     4    2
     4     3     5    1
     5     5     6    1
     6     6     8    1
     7     8     9   ar
     8     9    10   ar
     9    10    11   ar
    10    11    14    1
    11    14    15    1
    12    14    16    1
    13    14    17    1
    14    11    12   ar
    15    12    13   ar
    16     2    18    1
    17    18    25    1
    18    25    26    1
    19    26    27    1
    20    27    28    1
    21    28    29    1
    22    29    30    1
    23    29    31    1
    24    18    19    1
    25    19    20   ar
    26    20    21   ar
    27    21    22   ar
    28    22    23   ar
    29    23    24   ar
    30    13     8   ar
    31    31    26    1
    32    24    19   ar
    33     6     7    1
    34    30    32    1
@<TRIPOS>MOLECULE
*****
 32 34 0 0 0
SMALL
GASTEIGER

@<TRIPOS>ATOM
      1 C         -10.2832  -18.4744   24.8602 C.3     1  UNL1        0.1152
      2 N          -9.1786  -18.2244   23.8767 N.am    1  UNL1       -0.2729
      3 C          -8.6369  -19.3555   23.0538 C.2     1  UNL1        0.2459
      4 O          -9.1999  -20.7366   23.2144 O.2     1  UNL1       -0.2730
      5 C          -7.5323  -19.1055   22.0702 C.3     1  UNL1        0.1738
      6 N          -6.2726  -19.9173   22.1349 N.pl3   1  UNL1       -0.3253
      7 H          -6.3037  -20.8502   22.4478 H       1  UNL1        0.1473
      8 C          -4.9655  -19.3076   21.7227 C.ar    1  UNL1        0.0450
      9 C          -4.1708  -18.5011   22.7066 C.ar    1  UNL1        0.0142
     10 C          -2.8637  -17.8915   22.2944 C.ar    1  UNL1        0.0051
     11 C          -2.3513  -18.0884   20.8984 C.ar    1  UNL1        0.0715
     12 C          -3.1460  -18.8949   19.9146 C.ar    1  UNL1        0.0051
     13 C          -4.4531  -19.5045   20.3268 C.ar    1  UNL1        0.0142
     14 C          -1.0442  -17.4787   20.4863 C.3     1  UNL1        0.4186
     15 F           0.2629  -16.8691   20.0742 F       1  UNL1       -0.1659
     16 F          -1.3948  -16.2242   21.2300 F       1  UNL1       -0.1659
     17 F          -0.6936  -18.7332   19.7426 F       1  UNL1       -0.1659
     18 C          -8.6157  -16.8434   23.7161 C.3     1  UNL1        0.1139
     19 C          -7.8424  -16.2137   24.8366 C.ar    1  UNL1       -0.0029
     20 C          -8.4864  -16.0228   26.1778 C.ar    1  UNL1       -0.0026
     21 C          -7.7130  -15.3931   27.2983 C.ar    1  UNL1       -0.0003
     22 C          -6.2957  -14.9543   27.0776 C.ar    1  UNL1       -0.0000
     23 C          -5.6518  -15.1452   25.7364 C.ar    1  UNL1       -0.0003
     24 C          -6.4250  -15.7749   24.6159 C.ar    1  UNL1       -0.0026
     25 C          -8.8260  -16.0920   22.4351 C.3     1  UNL1        0.0968
     26 N         -10.1635  -16.1255   21.7569 N.3     1  UNL1       -0.2689
     27 C         -11.4340  -16.6700   22.3393 C.3     1  UNL1        0.0748
     28 C         -12.5211  -16.5013   21.3196 C.3     1  UNL1        0.0480
     29 C         -11.9224  -15.8525   20.1069 C.3     1  UNL1        0.1278
     30 O         -12.6526  -15.4982   18.8454 O.3     1  UNL1       -0.3830
     31 C         -10.4653  -15.6202   20.3771 C.3     1  UNL1        0.1017
     32 H         -12.0353  -15.0898   18.2184 H       1  UNL1        0.2104
@<TRIPOS>BOND
     1     1     2    1
     2     2     3   am
     3     3     4    2
     4     3     5    1
     5     5     6    1
     6     6     8    1
     7     8     9   ar
     8     9    10   ar
     9    10    11   ar
    10    11    14    1
    11    14    15    1
    12    14    16    1
    13    14    17    1
    14    11    12   ar
    15    12    13   ar
    16     2    18    1
    17    18    25    1
    18    25    26    1
    19    26    27    1
    20    27    28    1
    21    28    29    1
    22    29    30    1
    23    29    31    1
    24    18    19    1
    25    19    20   ar
    26    20    21   ar
    27    21    22   ar
    28    22    23   ar
    29    23    24   ar
    30    13     8   ar
    31    31    26    1
    32    24    19   ar
    33     6     7    1
    34    30    32    1
@<TRIPOS>MOLECULE
*****
 32 34 0 0 0
SMALL
GASTEIGER

@<TRIPOS>ATOM
      1 C          -8.7667  -15.9831   21.8854 C.3     1  UNL1        0.1152
      2 N          -8.4308  -17.2895   22.5414 N.am    1  UNL1       -0.2729
      3 C          -7.7403  -18.3664   21.7581 C.2     1  UNL1        0.2459
      4 O          -7.3857  -18.1368   20.3188 O.2     1  UNL1       -0.2730
      5 C          -7.4044  -19.6729   22.4141 C.3     1  UNL1        0.1738
      6 N          -6.1984  -20.4467   21.9704 N.pl3   1  UNL1       -0.3253
      7 H          -6.2350  -21.4292   21.9205 H       1  UNL1        0.1473
      8 C          -4.9367  -19.7234   21.6029 C.ar    1  UNL1        0.0450
      9 C          -4.2073  -18.9157   22.6351 C.ar    1  UNL1        0.0142
     10 C          -2.9457  -18.1925   22.2675 C.ar    1  UNL1        0.0051
     11 C          -2.4134  -18.2770   20.8676 C.ar    1  UNL1        0.0715
     12 C          -3.1428  -19.0848   19.8354 C.ar    1  UNL1        0.0051
     13 C          -4.4044  -19.8080   20.2030 C.ar    1  UNL1        0.0142
     14 C          -1.1517  -17.5538   20.5000 C.3     1  UNL1        0.4186
     15 F           0.1100  -16.8306   20.1325 F       1  UNL1       -0.1659
     16 F          -1.6584  -16.3205   21.1872 F       1  UNL1       -0.1659
     17 F          -0.6450  -18.7871   19.8129 F       1  UNL1       -0.1659
     18 C          -8.7854  -17.5191   23.9807 C.3     1  UNL1        0.1139
     19 C          -8.1048  -16.7259   25.0565 C.ar    1  UNL1       -0.0029
     20 C          -6.8128  -16.0216   24.7656 C.ar    1  UNL1       -0.0026
     21 C          -6.1322  -15.2283   25.8415 C.ar    1  UNL1       -0.0003
     22 C          -6.7436  -15.1394   27.2083 C.ar    1  UNL1       -0.0000
     23 C          -8.0357  -15.8437   27.4993 C.ar    1  UNL1       -0.0003
     24 C          -8.7162  -16.6369   26.4234 C.ar    1  UNL1       -0.0026
     25 C          -9.8206  -18.5420   24.3441 C.3     1  UNL1        0.0968
     26 N         -11.2727  -18.2609   24.0945 N.3     1  UNL1       -0.2689
     27 C         -11.8283  -17.3970   23.0013 C.3     1  UNL1        0.0748
     28 C         -13.3232  -17.3965   23.1254 C.3     1  UNL1        0.0480
     29 C         -13.6915  -18.2602   24.2952 C.3     1  UNL1        0.1278
     30 O         -15.0827  -18.5404   24.7808 O.3     1  UNL1       -0.3830
     31 C         -12.4242  -18.7944   24.8942 C.3     1  UNL1        0.1017
     32 H         -15.0439  -19.1275   25.5520 H       1  UNL1        0.2104
@<TRIPOS>BOND
     1     1     2    1
     2     2     3   am
     3     3     4    2
     4     3     5    1
     5     5     6    1
     6     6     8    1
     7     8     9   ar
     8     9    10   ar
     9    10    11   ar
    10    11    14    1
    11    14    15    1
    12    14    16    1
    13    14    17    1
    14    11    12   ar
    15    12    13   ar
    16     2    18    1
    17    18    25    1
    18    25    26    1
    19    26    27    1
    20    27    28    1
    21    28    29    1
    22    29    30    1
    23    29    31    1
    24    18    19    1
    25    19    20   ar
    26    20    21   ar
    27    21    22   ar
    28    22    23   ar
    29    23    24   ar
    30    13     8   ar
    31    31    26    1
    32    24    19   ar
    33     6     7    1
    34    30    32    1
@<TRIPOS>MOLECULE
*****
 32 34 0 0 0
SMALL
GASTEIGER

@<TRIPOS>ATOM
      1 C          -9.8409  -18.7272   25.0226 C.3     1  UNL1        0.1152
      2 N          -9.1176  -18.7569   23.7089 N.am    1  UNL1       -0.2729
      3 C          -8.4781  -20.0276   23.2333 C.2     1  UNL1        0.2459
      4 O          -8.5618  -21.2687   24.0716 O.2     1  UNL1       -0.2730
      5 C          -7.7548  -20.0573   21.9195 C.3     1  UNL1        0.1738
      6 N          -6.3982  -20.6901   21.8244 N.pl3   1  UNL1       -0.3253
      7 H          -6.2940  -21.6568   21.9786 H       1  UNL1        0.1473
      8 C          -5.2002  -19.8499   21.4941 C.ar    1  UNL1        0.0450
      9 C          -4.5666  -18.9979   22.5536 C.ar    1  UNL1        0.0142
     10 C          -3.3686  -18.1578   22.2234 C.ar    1  UNL1        0.0051
     11 C          -2.8043  -18.1697   20.8336 C.ar    1  UNL1        0.0715
     12 C          -3.4379  -19.0217   19.7741 C.ar    1  UNL1        0.0051
     13 C          -4.6358  -19.8618   20.1044 C.ar    1  UNL1        0.0142
     14 C          -1.6063  -17.3296   20.5034 C.3     1  UNL1        0.4186
     15 F          -0.4083  -16.4895   20.1732 F       1  UNL1       -0.1659
     16 F          -2.0826  -16.2750   21.4579 F       1  UNL1       -0.1659
     17 F          -1.1299  -18.3841   19.5489 F       1  UNL1       -0.1659
     18 C          -9.0339  -17.5158   22.8706 C.3     1  UNL1        0.1139
     19 C         -10.2392  -17.0371   22.1169 C.ar    1  UNL1       -0.0029
     20 C         -10.3306  -17.2506   20.6349 C.ar    1  UNL1       -0.0026
     21 C         -11.5360  -16.7719   19.8812 C.ar    1  UNL1       -0.0003
     22 C         -12.6498  -16.0798   20.6094 C.ar    1  UNL1       -0.0000
     23 C         -12.5584  -15.8663   22.0913 C.ar    1  UNL1       -0.0003
     24 C         -11.3532  -16.3450   22.8450 C.ar    1  UNL1       -0.0026
     25 C          -7.7450  -16.7533   22.7861 C.3     1  UNL1        0.0968
     26 N          -7.1384  -16.1660   24.0259 N.3     1  UNL1       -0.2689
     27 C          -5.6779  -15.9164   24.2598 C.3     1  UNL1        0.0748
     28 C          -5.5226  -15.3212   25.6279 C.3     1  UNL1        0.0480
     29 C          -6.8871  -15.2030   26.2396 C.3     1  UNL1        0.1278
     30 O          -7.1984  -14.6584   27.6021 O.3     1  UNL1       -0.3830
     31 C          -7.8857  -15.7251   25.2495 C.3     1  UNL1        0.1017
     32 H          -8.1559  -14.6932   27.7532 H       1  UNL1        0.2104
@<TRIPOS>BOND
     1     1     2    1
     2     2     3   am
     3     3     4    2
     4     3     5    1
     5     5     6    1
     6     6     8    1
     7     8     9   ar
     8     9    10   ar
     9    10    11   ar
    10    11    14    1
    11    14    15    1
    12    14    16    1
    13    14    17    1
    14    11    12   ar
    15    12    13   ar
    16     2    18    1
    17    18    25    1
    18    25    26    1
    19    26    27    1
    20    27    28    1
    21    28    29    1
    22    29    30    1
    23    29    31    1
    24    18    19    1
    25    19    20   ar
    26    20    21   ar
    27    21    22   ar
    28    22    23   ar
    29    23    24   ar
    30    13     8   ar
    31    31    26    1
    32    24    19   ar
    33     6     7    1
    34    30    32    1
@<TRIPOS>MOLECULE
*****
 32 34 0 0 0
SMALL
GASTEIGER

@<TRIPOS>ATOM
      1 C          -8.5745  -15.7748   22.1295 C.3     1  UNL1        0.1152
      2 N          -8.6659  -17.2200   22.5208 N.am    1  UNL1       -0.2729
      3 C          -7.8896  -18.2535   21.7599 C.2     1  UNL1        0.2459
      4 O          -7.0218  -17.8419   20.6077 O.2     1  UNL1       -0.2730
      5 C          -7.9810  -19.6987   22.1511 C.3     1  UNL1        0.1738
      6 N          -6.7329  -20.5200   22.2845 N.pl3   1  UNL1       -0.3253
      7 H          -6.7612  -21.3861   22.7518 H       1  UNL1        0.1473
      8 C          -5.4418  -20.0217   21.7059 C.ar    1  UNL1        0.0450
      9 C          -4.5443  -19.1405   22.5230 C.ar    1  UNL1        0.0142
     10 C          -3.2533  -18.6422   21.9444 C.ar    1  UNL1        0.0051
     11 C          -2.8597  -19.0253   20.5485 C.ar    1  UNL1        0.0715
     12 C          -3.7572  -19.9066   19.7314 C.ar    1  UNL1        0.0051
     13 C          -5.0482  -20.4048   20.3100 C.ar    1  UNL1        0.0142
     14 C          -1.5685  -18.5270   19.9699 C.3     1  UNL1        0.4186
     15 F          -0.2775  -18.0288   19.3912 F       1  UNL1       -0.1659
     16 F          -1.0293  -18.3171   21.3537 F       1  UNL1       -0.1659
     17 F          -2.1078  -18.7370   18.5860 F       1  UNL1       -0.1659
     18 C          -9.5337  -17.6316   23.6730 C.3     1  UNL1        0.1139
     19 C         -11.0151  -17.7715   23.4837 C.ar    1  UNL1       -0.0029
     20 C         -11.8626  -18.3319   24.5872 C.ar    1  UNL1       -0.0026
     21 C         -13.3440  -18.4719   24.3979 C.ar    1  UNL1       -0.0003
     22 C         -13.9779  -18.0515   23.1051 C.ar    1  UNL1       -0.0000
     23 C         -13.1304  -17.4912   22.0015 C.ar    1  UNL1       -0.0003
     24 C         -11.6490  -17.3512   22.1908 C.ar    1  UNL1       -0.0026
     25 C          -8.9201  -17.9032   25.0145 C.3     1  UNL1        0.0968
     26 N          -8.0998  -16.8458   25.6920 N.3     1  UNL1       -0.2689
     27 C          -8.3244  -16.3058   27.0733 C.3     1  UNL1        0.0748
     28 C          -7.2743  -15.2689   27.3421 C.3     1  UNL1        0.0480
     29 C          -6.4006  -15.1681   26.1270 C.3     1  UNL1        0.1278
     30 O          -5.2235  -14.2534   25.9609 O.3     1  UNL1       -0.3830
     31 C          -6.9108  -16.1427   25.1071 C.3     1  UNL1        0.1017
     32 H          -4.8328  -14.3855   25.0829 H       1  UNL1        0.2104
@<TRIPOS>BOND
     1     1     2    1
     2     2     3   am
     3     3     4    2
     4     3     5    1
     5     5     6    1
     6     6     8    1
     7     8     9   ar
     8     9    10   ar
     9    10    11   ar
    10    11    14    1
    11    14    15    1
    12    14    16    1
    13    14    17    1
    14    11    12   ar
    15    12    13   ar
    16     2    18    1
    17    18    25    1
    18    25    26    1
    19    26    27    1
    20    27    28    1
    21    28    29    1
    22    29    30    1
    23    29    31    1
    24    18    19    1
    25    19    20   ar
    26    20    21   ar
    27    21    22   ar
    28    22    23   ar
    29    23    24   ar
    30    13     8   ar
    31    31    26    1
    32    24    19   ar
    33     6     7    1
    34    30    32    1
@<TRIPOS>MOLECULE
*****
 32 34 0 0 0
SMALL
GASTEIGER

@<TRIPOS>ATOM
      1 C          -7.7233  -15.0129   22.4065 C.3     1  UNL1        0.1152
      2 N          -7.1151  -16.2054   23.0830 N.am    1  UNL1       -0.2729
      3 C          -5.8198  -16.0663   23.8265 C.2     1  UNL1        0.2459
      4 O          -5.1327  -14.7346   23.8933 O.2     1  UNL1       -0.2730
      5 C          -5.2115  -17.2589   24.5030 C.3     1  UNL1        0.1738
      6 N          -3.7839  -17.6293   24.2295 N.pl3   1  UNL1       -0.3253
      7 H          -3.1850  -17.8645   24.9746 H       1  UNL1        0.1473
      8 C          -3.2689  -17.6413   22.8207 C.ar    1  UNL1        0.0450
      9 C          -2.4366  -16.4997   22.3167 C.ar    1  UNL1        0.0142
     10 C          -1.9216  -16.5117   20.9080 C.ar    1  UNL1        0.0051
     11 C          -2.2389  -17.6653   20.0033 C.ar    1  UNL1        0.0715
     12 C          -3.0712  -18.8069   20.5073 C.ar    1  UNL1        0.0051
     13 C          -3.5862  -18.7949   21.9160 C.ar    1  UNL1        0.0142
     14 C          -1.7238  -17.6773   18.5944 C.3     1  UNL1        0.4186
     15 F          -1.2088  -17.6893   17.1857 F       1  UNL1       -0.1659
     16 F          -0.3792  -18.1206   19.0898 F       1  UNL1       -0.1659
     17 F          -3.0684  -17.2340   18.0991 F       1  UNL1       -0.1659
     18 C          -7.8022  -17.5371   23.0161 C.3     1  UNL1        0.1139
     19 C          -7.2848  -18.6026   22.0958 C.ar    1  UNL1       -0.0029
     20 C          -6.9332  -19.9562   22.6382 C.ar    1  UNL1       -0.0026
     21 C          -6.4158  -21.0217   21.7178 C.ar    1  UNL1       -0.0003
     22 C          -6.2501  -20.7336   20.2551 C.ar    1  UNL1       -0.0000
     23 C          -6.6017  -19.3801   19.7127 C.ar    1  UNL1       -0.0003
     24 C          -7.1191  -18.3146   20.6330 C.ar    1  UNL1       -0.0026
     25 C          -9.0066  -17.8034   23.8695 C.3     1  UNL1        0.0968
     26 N         -10.3821  -17.6908   23.2817 N.3     1  UNL1       -0.2689
     27 C         -11.6525  -18.1813   23.9105 C.3     1  UNL1        0.0748
     28 C         -12.7842  -17.8617   22.9793 C.3     1  UNL1        0.0480
     29 C         -12.2131  -17.1736   21.7749 C.3     1  UNL1        0.1278
     30 O         -12.9902  -16.6782   20.5914 O.3     1  UNL1       -0.3830
     31 C         -10.7285  -17.0680   21.9617 C.3     1  UNL1        0.1017
     32 H         -12.3831  -16.2723   19.9529 H       1  UNL1        0.2104
@<TRIPOS>BOND
     1     1     2    1
     2     2     3   am
     3     3     4    2
     4     3     5    1
     5     5     6    1
     6     6     8    1
     7     8     9   ar
     8     9    10   ar
     9    10    11   ar
    10    11    14    1
    11    14    15    1
    12    14    16    1
    13    14    17    1
    14    11    12   ar
    15    12    13   ar
    16     2    18    1
    17    18    25    1
    18    25    26    1
    19    26    27    1
    20    27    28    1
    21    28    29    1
    22    29    30    1
    23    29    31    1
    24    18    19    1
    25    19    20   ar
    26    20    21   ar
    27    21    22   ar
    28    22    23   ar
    29    23    24   ar
    30    13     8   ar
    31    31    26    1
    32    24    19   ar
    33     6     7    1
    34    30    32    1
@<TRIPOS>MOLECULE
*****
 32 34 0 0 0
SMALL
GASTEIGER

@<TRIPOS>ATOM
      1 C          -8.7534  -15.4384   26.3220 C.3     1  UNL1        0.1152
      2 N          -7.9194  -15.7999   25.1288 N.am    1  UNL1       -0.2729
      3 C          -6.4497  -15.5003   25.1225 C.2     1  UNL1        0.2459
      4 O          -5.8139  -14.8391   26.3094 O.2     1  UNL1       -0.2730
      5 C          -5.6156  -15.8618   23.9293 C.3     1  UNL1        0.1738
      6 N          -4.5999  -16.9610   24.0294 N.pl3   1  UNL1       -0.3253
      7 H          -4.5529  -17.5153   24.8417 H       1  UNL1        0.1473
      8 C          -3.6557  -17.2157   22.8919 C.ar    1  UNL1        0.0450
      9 C          -2.7810  -16.1093   22.3812 C.ar    1  UNL1        0.0142
     10 C          -1.8369  -16.3641   21.2438 C.ar    1  UNL1        0.0051
     11 C          -1.7676  -17.7251   20.6171 C.ar    1  UNL1        0.0715
     12 C          -2.6423  -18.8314   21.1279 C.ar    1  UNL1        0.0051
     13 C          -3.5864  -18.5767   22.2653 C.ar    1  UNL1        0.0142
     14 C          -0.8234  -17.9798   19.4796 C.3     1  UNL1        0.4186
     15 F           0.1207  -18.2345   18.3422 F       1  UNL1       -0.1659
     16 F           0.2723  -17.2866   20.2338 F       1  UNL1       -0.1659
     17 F          -1.9191  -18.6730   18.7255 F       1  UNL1       -0.1659
     18 C          -8.5551  -16.4611   23.9419 C.3     1  UNL1        0.1139
     19 C          -8.8885  -17.9228   23.9869 C.ar    1  UNL1       -0.0029
     20 C          -9.8196  -18.4477   25.0393 C.ar    1  UNL1       -0.0026
     21 C         -10.1530  -19.9095   25.0843 C.ar    1  UNL1       -0.0003
     22 C          -9.5554  -20.8464   24.0768 C.ar    1  UNL1       -0.0000
     23 C          -8.6243  -20.3215   23.0244 C.ar    1  UNL1       -0.0003
     24 C          -8.2909  -18.8598   22.9794 C.ar    1  UNL1       -0.0026
     25 C          -8.8574  -15.6605   22.7100 C.3     1  UNL1        0.0968
     26 N         -10.1469  -15.8744   21.9741 N.3     1  UNL1       -0.2689
     27 C         -11.4071  -16.4472   22.5518 C.3     1  UNL1        0.0748
     28 C         -12.4417  -16.4800   21.4661 C.3     1  UNL1        0.0480
     29 C         -11.8207  -15.9275   20.2174 C.3     1  UNL1        0.1278
     30 O         -12.4989  -15.7758   18.8881 O.3     1  UNL1       -0.3830
     31 C         -10.4025  -15.5532   20.5313 C.3     1  UNL1        0.1017
     32 H         -11.8768  -15.3940   18.2494 H       1  UNL1        0.2104
@<TRIPOS>BOND
     1     1     2    1
     2     2     3   am
     3     3     4    2
     4     3     5    1
     5     5     6    1
     6     6     8    1
     7     8     9   ar
     8     9    10   ar
     9    10    11   ar
    10    11    14    1
    11    14    15    1
    12    14    16    1
    13    14    17    1
    14    11    12   ar
    15    12    13   ar
    16     2    18    1
    17    18    25    1
    18    25    26    1
    19    26    27    1
    20    27    28    1
    21    28    29    1
    22    29    30    1
    23    29    31    1
    24    18    19    1
    25    19    20   ar
    26    20    21   ar
    27    21    22   ar
    28    22    23   ar
    29    23    24   ar
    30    13     8   ar
    31    31    26    1
    32    24    19   ar
    33     6     7    1
    34    30    32    1
@<TRIPOS>MOLECULE
*****
 32 34 0 0 0
SMALL
GASTEIGER

@<TRIPOS>ATOM
      1 C         -10.0465  -15.6166   21.4133 C.3     1  UNL1        0.1152
      2 N          -9.1471  -16.5694   22.1436 N.am    1  UNL1       -0.2729
      3 C          -7.9322  -16.0559   22.8578 C.2     1  UNL1        0.2459
      4 O          -7.6166  -14.5895   22.8417 O.2     1  UNL1       -0.2730
      5 C          -7.0328  -17.0087   23.5881 C.3     1  UNL1        0.1738
      6 N          -5.6442  -16.5874   23.9681 N.pl3   1  UNL1       -0.3253
      7 H          -5.4962  -16.0613   24.7870 H       1  UNL1        0.1473
      8 C          -4.4811  -16.9678   23.1005 C.ar    1  UNL1        0.0450
      9 C          -4.3583  -18.3704   22.5833 C.ar    1  UNL1        0.0142
     10 C          -3.1953  -18.7507   21.7158 C.ar    1  UNL1        0.0051
     11 C          -2.1550  -17.7283   21.3655 C.ar    1  UNL1        0.0715
     12 C          -2.2778  -16.3257   21.8827 C.ar    1  UNL1        0.0051
     13 C          -3.4409  -15.9454   22.7502 C.ar    1  UNL1        0.0142
     14 C          -0.9919  -18.1087   20.4979 C.3     1  UNL1        0.4186
     15 F           0.1711  -18.4890   19.6304 F       1  UNL1       -0.1659
     16 F          -1.4661  -19.5317   20.4860 F       1  UNL1       -0.1659
     17 F          -0.5178  -16.6857   20.5098 F       1  UNL1       -0.1659
     18 C          -9.4628  -18.0357   22.1596 C.3     1  UNL1        0.1139
     19 C          -9.2435  -18.8636   20.9282 C.ar    1  UNL1       -0.0029
     20 C          -7.8603  -19.3160   20.5650 C.ar    1  UNL1       -0.0026
     21 C          -7.6411  -20.1439   19.3335 C.ar    1  UNL1       -0.0003
     22 C          -8.8052  -20.5195   18.4652 C.ar    1  UNL1       -0.0000
     23 C         -10.1884  -20.0671   18.8285 C.ar    1  UNL1       -0.0003
     24 C         -10.4077  -19.2392   20.0599 C.ar    1  UNL1       -0.0026
     25 C          -9.9976  -18.6742   23.4071 C.3     1  UNL1        0.0968
     26 N         -11.4384  -18.4941   23.7834 N.3     1  UNL1       -0.2689
     27 C         -12.5042  -17.8813   22.9240 C.3     1  UNL1        0.0748
     28 C         -13.7909  -17.9036   23.6946 C.3     1  UNL1        0.0480
     29 C         -13.5204  -18.5302   25.0303 C.3     1  UNL1        0.1278
     30 O         -14.5270  -18.7528   26.1199 O.3     1  UNL1       -0.3830
     31 C         -12.0665  -18.8952   25.0853 C.3     1  UNL1        0.1017
     32 H         -14.0942  -19.1744   26.8787 H       1  UNL1        0.2104
@<TRIPOS>BOND
     1     1     2    1
     2     2     3   am
     3     3     4    2
     4     3     5    1
     5     5     6    1
     6     6     8    1
     7     8     9   ar
     8     9    10   ar
     9    10    11   ar
    10    11    14    1
    11    14    15    1
    12    14    16    1
    13    14    17    1
    14    11    12   ar
    15    12    13   ar
    16     2    18    1
    17    18    25    1
    18    25    26    1
    19    26    27    1
    20    27    28    1
    21    28    29    1
    22    29    30    1
    23    29    31    1
    24    18    19    1
    25    19    20   ar
    26    20    21   ar
    27    21    22   ar
    28    22    23   ar
    29    23    24   ar
    30    13     8   ar
    31    31    26    1
    32    24    19   ar
    33     6     7    1
    34    30    32    1
@<TRIPOS>MOLECULE
*****
 32 34 0 0 0
SMALL
GASTEIGER

@<TRIPOS>ATOM
      1 C         -11.4007  -18.7021   18.7687 C.3     1  UNL1        0.1152
      2 N         -10.9894  -18.0424   20.0515 N.am    1  UNL1       -0.2729
      3 C         -10.8171  -16.5535   20.1074 C.2     1  UNL1        0.2459
      4 O         -11.0561  -15.7242   18.8806 O.2     1  UNL1       -0.2730
      5 C         -10.4057  -15.8937   21.3902 C.3     1  UNL1        0.1738
      6 N          -8.9548  -15.6351   21.6690 N.pl3   1  UNL1       -0.3253
      7 H          -8.3412  -15.4241   20.9285 H       1  UNL1        0.1473
      8 C          -8.4385  -15.6980   23.0760 C.ar    1  UNL1        0.0450
      9 C          -9.3146  -16.2252   24.1735 C.ar    1  UNL1        0.0142
     10 C          -8.7983  -16.2881   25.5804 C.ar    1  UNL1        0.0051
     11 C          -7.4059  -15.8239   25.8898 C.ar    1  UNL1        0.0715
     12 C          -6.5298  -15.2968   24.7924 C.ar    1  UNL1        0.0051
     13 C          -7.0461  -15.2339   23.3855 C.ar    1  UNL1        0.0142
     14 C          -6.8897  -15.8868   27.2969 C.3     1  UNL1        0.4186
     15 F          -6.3734  -15.9498   28.7038 F       1  UNL1       -0.1659
     16 F          -8.2980  -15.9134   27.8125 F       1  UNL1       -0.1659
     17 F          -5.4814  -15.8602   26.7813 F       1  UNL1       -0.1659
     18 C         -10.7504  -18.8717   21.2784 C.3     1  UNL1        0.1139
     19 C         -11.6161  -18.6865   22.4892 C.ar    1  UNL1       -0.0029
     20 C         -12.9658  -18.0460   22.3553 C.ar    1  UNL1       -0.0026
     21 C         -13.8316  -17.8608   23.5662 C.ar    1  UNL1       -0.0003
     22 C         -13.3476  -18.3161   24.9109 C.ar    1  UNL1       -0.0000
     23 C         -11.9979  -18.9566   25.0449 C.ar    1  UNL1       -0.0003
     24 C         -11.1321  -19.1418   23.8340 C.ar    1  UNL1       -0.0026
     25 C          -9.6456  -19.8862   21.2944 C.3     1  UNL1        0.0968
     26 N          -8.2156  -19.4390   21.2237 N.3     1  UNL1       -0.2689
     27 C          -7.3420  -19.0904   22.3921 C.3     1  UNL1        0.0748
     28 C          -5.9945  -18.6978   21.8627 C.3     1  UNL1        0.0480
     29 C          -6.0354  -18.8038   20.3670 C.3     1  UNL1        0.1278
     30 O          -4.9025  -18.5043   19.4306 O.3     1  UNL1       -0.3830
     31 C          -7.4081  -19.2619   19.9720 C.3     1  UNL1        0.1017
     32 H          -5.1909  -18.6523   18.5164 H       1  UNL1        0.2104
@<TRIPOS>BOND
     1     1     2    1
     2     2     3   am
     3     3     4    2
     4     3     5    1
     5     5     6    1
     6     6     8    1
     7     8     9   ar
     8     9    10   ar
     9    10    11   ar
    10    11    14    1
    11    14    15    1
    12    14    16    1
    13    14    17    1
    14    11    12   ar
    15    12    13   ar
    16     2    18    1
    17    18    25    1
    18    25    26    1
    19    26    27    1
    20    27    28    1
    21    28    29    1
    22    29    30    1
    23    29    31    1
    24    18    19    1
    25    19    20   ar
    26    20    21   ar
    27    21    22   ar
    28    22    23   ar
    29    23    24   ar
    30    13     8   ar
    31    31    26    1
    32    24    19   ar
    33     6     7    1
    34    30    32    1
