@<TRIPOS>MOLECULE
*****
 45 49 0 0 0
SMALL
GASTEIGER

@<TRIPOS>ATOM
      1 C           7.8640   -3.8204   25.9723 C.3     1  UNL1        0.1740
      2 N           5.7153   -3.5870   24.5306 N.am    1  UNL1       -0.2825
      3 C           7.1892   -3.3733   24.7096 C.2     1  UNL1        0.2461
      4 O           7.9882   -2.7124   23.6257 O.2     1  UNL1       -0.2729
      5 H           5.1909   -4.0208   25.2420 H       1  UNL1        0.1549
      6 C           3.6907   -2.2455   20.7422 C.ar    1  UNL1       -0.0022
      7 C           3.5920   -1.4078   21.9827 C.ar    1  UNL1       -0.0017
      8 C           4.2668   -1.8549   23.2454 C.ar    1  UNL1        0.0144
      9 C           5.0404   -3.1398   23.2678 C.ar    1  UNL1        0.0503
     10 C           5.1392   -3.9776   22.0275 C.ar    1  UNL1        0.0182
     11 C           4.4644   -3.5304   20.7647 C.ar    1  UNL1        0.0700
     12 C           4.5631   -4.3681   19.5244 C.3     1  UNL1        0.4184
     13 F           4.6619   -5.2058   18.2841 F       1  UNL1       -0.1659
     14 F           3.3374   -5.1266   19.9391 F       1  UNL1       -0.1659
     15 F           5.7889   -3.6096   19.1097 F       1  UNL1       -0.1659
     16 C           3.0159   -1.7983   19.4795 C.3     1  UNL1        0.0992
     17 C          -0.0787    3.3413   19.3898 C.3     1  UNL1        0.0897
     18 N           0.6949    2.0564   19.4122 N.3     1  UNL1       -0.2691
     19 C           0.1622    0.8732   20.1647 C.3     1  UNL1        0.0897
     20 C           0.9359   -0.4117   20.1871 C.3     1  UNL1        0.0899
     21 N           2.2422   -0.5134   19.4571 N.3     1  UNL1       -0.2665
     22 C           2.7749    0.6698   18.7046 C.3     1  UNL1        0.0899
     23 C           2.0013    1.9547   18.6822 C.3     1  UNL1        0.0897
     24 N           7.0958   -4.6014   26.9972 N.pl3   1  UNL1       -0.3235
     25 H           6.8113   -5.5234   26.8018 H       1  UNL1        0.1473
     26 C           6.7613   -3.9776   28.3196 C.ar    1  UNL1        0.0728
     27 C           6.2043   -2.5859   28.3729 C.ar    1  UNL1        0.0166
     28 C           5.8698   -1.9620   29.6954 C.ar    1  UNL1        0.0015
     29 C           6.0923   -2.7298   30.9646 C.ar    1  UNL1        0.0038
     30 C           6.6493   -4.1216   30.9113 C.ar    1  UNL1        0.0310
     31 C           6.9838   -4.7454   29.5888 C.ar    1  UNL1        0.1531
     32 F           7.5408   -6.1371   29.5356 F       1  UNL1       -0.2029
     33 C           5.7578   -2.1060   32.2870 C.ar    1  UNL1        0.0193
     34 C           6.7389   -1.1866   32.9522 C.ar    1  UNL1        0.0044
     35 C           6.4044   -0.5628   34.2746 C.ar    1  UNL1        0.0345
     36 C           5.0888   -0.8583   34.9320 C.ar    1  UNL1        0.1342
     37 N           4.1078   -1.7776   34.2668 N.ar    1  UNL1       -0.2290
     38 C           4.4423   -2.4015   32.9443 C.ar    1  UNL1        0.1003
     39 N           4.7543   -0.2345   36.2544 N.am    1  UNL1       -0.2694
     40 C           3.9498    1.0306   36.3049 C.2     1  UNL1        0.2267
     41 O           3.4798    1.6718   35.0328 O.2     1  UNL1       -0.2748
     42 H           5.0628   -0.6553   37.0893 H       1  UNL1        0.1563
     43 C           3.6153    1.6544   37.6273 C.3     1  UNL1        0.0769
     44 C           2.6243    1.9347   38.7178 C.3     1  UNL1        0.0096
     45 C           4.0270    2.4547   38.8274 C.3     1  UNL1        0.0096
@<TRIPOS>BOND
     1    17    18    1
     2    18    19    1
     3    19    20    1
     4    20    21    1
     5    21    16    1
     6    16     6    1
     7     6     7   ar
     8     7     8   ar
     9     8     9   ar
    10     9     2    1
    11     2     3   am
    12     3     4    2
    13     3     1    1
    14     1    24    1
    15    24    26    1
    16    26    27   ar
    17    27    28   ar
    18    28    29   ar
    19    29    33    1
    20    33    34   ar
    21    34    35   ar
    22    35    36   ar
    23    36    39    1
    24    39    40   am
    25    40    41    2
    26    40    43    1
    27    43    44    1
    28    44    45    1
    29    36    37   ar
    30    37    38   ar
    31    29    30   ar
    32    30    31   ar
    33    31    32    1
    34     9    10   ar
    35    10    11   ar
    36    11    12    1
    37    12    13    1
    38    12    14    1
    39    12    15    1
    40    21    22    1
    41    22    23    1
    42    23    18    1
    43    11     6   ar
    44    31    26   ar
    45    38    33   ar
    46    45    43    1
    47     2     5    1
    48    24    25    1
    49    39    42    1
@<TRIPOS>MOLECULE
*****
 45 49 0 0 0
SMALL
GASTEIGER

@<TRIPOS>ATOM
      1 C           7.9680   -3.8956   25.8947 C.3     1  UNL1        0.1740
      2 N           5.7791   -3.6424   24.5184 N.am    1  UNL1       -0.2825
      3 C           7.2584   -3.4359   24.6557 C.2     1  UNL1        0.2461
      4 O           8.0281   -2.7696   23.5541 O.2     1  UNL1       -0.2729
      5 H           5.2739   -4.0798   25.2415 H       1  UNL1        0.1549
      6 C           3.6500   -2.2632   20.8015 C.ar    1  UNL1       -0.0022
      7 C           3.5530   -1.4586   22.0638 C.ar    1  UNL1       -0.0017
      8 C           4.2626   -1.9183   23.3027 C.ar    1  UNL1        0.0144
      9 C           5.0694   -3.1827   23.2794 C.ar    1  UNL1        0.0503
     10 C           5.1664   -3.9873   22.0173 C.ar    1  UNL1        0.0182
     11 C           4.4567   -3.5276   20.7783 C.ar    1  UNL1        0.0700
     12 C           4.5537   -4.3322   19.5161 C.3     1  UNL1        0.4184
     13 F           4.6508   -5.1368   18.2539 F       1  UNL1       -0.1659
     14 F           5.7489   -3.5290   19.0960 F       1  UNL1       -0.1659
     15 F           3.3586   -5.1354   19.9362 F       1  UNL1       -0.1659
     16 C           2.9403   -1.8034   19.5626 C.3     1  UNL1        0.0992
     17 C           3.0588    3.9918   18.0131 C.3     1  UNL1        0.0897
     18 N           3.0292    2.5430   18.4005 N.3     1  UNL1       -0.2691
     19 C           4.3126    1.7848   18.5669 C.3     1  UNL1        0.0897
     20 C           4.2830    0.3359   18.9543 C.3     1  UNL1        0.0899
     21 N           2.9699   -0.3546   19.1753 N.3     1  UNL1       -0.2665
     22 C           1.6865    0.4036   19.0088 C.3     1  UNL1        0.0899
     23 C           1.7161    1.8524   18.6214 C.3     1  UNL1        0.0897
     24 N           7.2253   -4.6759   26.9386 N.pl3   1  UNL1       -0.3235
     25 H           6.9571   -5.6061   26.7598 H       1  UNL1        0.1473
     26 C           6.8913   -4.0388   28.2548 C.ar    1  UNL1        0.0728
     27 C           6.4515   -2.6056   28.3042 C.ar    1  UNL1        0.0166
     28 C           6.1175   -1.9685   29.6205 C.ar    1  UNL1        0.0015
     29 C           6.2233   -2.7647   30.8874 C.ar    1  UNL1        0.0038
     30 C           6.6631   -4.1979   30.8380 C.ar    1  UNL1        0.0310
     31 C           6.9971   -4.8350   29.5217 C.ar    1  UNL1        0.1531
     32 F           7.4369   -6.2682   29.4723 F       1  UNL1       -0.2029
     33 C           5.8893   -2.1276   32.2036 C.ar    1  UNL1        0.0193
     34 C           4.5732   -2.4150   32.8635 C.ar    1  UNL1        0.0044
     35 C           4.2392   -1.7779   34.1797 C.ar    1  UNL1        0.0345
     36 C           5.2213   -0.8535   34.8362 C.ar    1  UNL1        0.1342
     37 N           6.5373   -0.5661   34.1765 N.ar    1  UNL1       -0.2290
     38 C           6.8714   -1.2032   32.8601 C.ar    1  UNL1        0.1003
     39 N           4.8873   -0.2165   36.1525 N.am    1  UNL1       -0.2694
     40 C           4.1322    1.0792   36.1885 C.2     1  UNL1        0.2267
     41 O           3.7111    1.7377   34.9083 O.2     1  UNL1       -0.2748
     42 H           5.1637   -0.6487   36.9927 H       1  UNL1        0.1563
     43 C           3.7982    1.7162   37.5048 C.3     1  UNL1        0.0769
     44 C           3.9404    2.8558   38.4697 C.3     1  UNL1        0.0096
     45 C           3.0774    1.6800   38.8197 C.3     1  UNL1        0.0096
@<TRIPOS>BOND
     1    17    18    1
     2    18    19    1
     3    19    20    1
     4    20    21    1
     5    21    16    1
     6    16     6    1
     7     6     7   ar
     8     7     8   ar
     9     8     9   ar
    10     9     2    1
    11     2     3   am
    12     3     4    2
    13     3     1    1
    14     1    24    1
    15    24    26    1
    16    26    27   ar
    17    27    28   ar
    18    28    29   ar
    19    29    33    1
    20    33    34   ar
    21    34    35   ar
    22    35    36   ar
    23    36    39    1
    24    39    40   am
    25    40    41    2
    26    40    43    1
    27    43    44    1
    28    44    45    1
    29    36    37   ar
    30    37    38   ar
    31    29    30   ar
    32    30    31   ar
    33    31    32    1
    34     9    10   ar
    35    10    11   ar
    36    11    12    1
    37    12    13    1
    38    12    14    1
    39    12    15    1
    40    21    22    1
    41    22    23    1
    42    23    18    1
    43    11     6   ar
    44    31    26   ar
    45    38    33   ar
    46    45    43    1
    47     2     5    1
    48    24    25    1
    49    39    42    1
@<TRIPOS>MOLECULE
*****
 45 49 0 0 0
SMALL
GASTEIGER

@<TRIPOS>ATOM
      1 C           6.8490   -5.0660   26.2218 C.3     1  UNL1        0.1740
      2 N           5.7933   -3.6769   24.2969 N.am    1  UNL1       -0.2825
      3 C           6.8194   -4.6593   24.7784 C.2     1  UNL1        0.2461
      4 O           7.8160   -5.2350   23.8163 O.2     1  UNL1       -0.2729
      5 H           5.1392   -3.2990   24.9283 H       1  UNL1        0.1549
      6 C           5.7044   -2.4566   19.9664 C.ar    1  UNL1       -0.0022
      7 C           6.7444   -1.8868   20.8850 C.ar    1  UNL1       -0.0017
      8 C           6.7740   -2.2936   22.3285 C.ar    1  UNL1        0.0144
      9 C           5.7636   -3.2701   22.8534 C.ar    1  UNL1        0.0503
     10 C           4.7237   -3.8399   21.9348 C.ar    1  UNL1        0.0182
     11 C           4.6940   -3.4331   20.4913 C.ar    1  UNL1        0.0700
     12 C           3.6541   -4.0029   19.5727 C.3     1  UNL1        0.4184
     13 F           2.6141   -4.5726   18.6542 F       1  UNL1       -0.1659
     14 F           2.8088   -2.7797   19.7710 F       1  UNL1       -0.1659
     15 F           4.4993   -5.2260   19.3745 F       1  UNL1       -0.1659
     16 C           5.6748   -2.0498   18.5229 C.3     1  UNL1        0.0992
     17 C           5.6188    3.7651   17.0452 C.3     1  UNL1        0.0897
     18 N           5.6328    2.3114   17.4146 N.3     1  UNL1       -0.2691
     19 C           4.5493    1.7485   18.2859 C.3     1  UNL1        0.0897
     20 C           4.5633    0.2948   18.6554 C.3     1  UNL1        0.0899
     21 N           5.6608   -0.5961   18.1535 N.3     1  UNL1       -0.2665
     22 C           6.7443   -0.0332   17.2822 C.3     1  UNL1        0.0899
     23 C           6.7303    1.4206   16.9128 C.3     1  UNL1        0.0897
     24 N           7.8336   -4.4325   27.1595 N.pl3   1  UNL1       -0.3235
     25 H           8.7896   -4.4064   26.9256 H       1  UNL1        0.1473
     26 C           7.3617   -3.8387   28.4536 C.ar    1  UNL1        0.0728
     27 C           7.1420   -2.3590   28.5638 C.ar    1  UNL1        0.0166
     28 C           6.6701   -1.7652   29.8580 C.ar    1  UNL1        0.0015
     29 C           6.4180   -2.6511   31.0419 C.ar    1  UNL1        0.0038
     30 C           6.6378   -4.1308   30.9316 C.ar    1  UNL1        0.0310
     31 C           7.1096   -4.7246   29.6375 C.ar    1  UNL1        0.1531
     32 F           7.3294   -6.2043   29.5273 F       1  UNL1       -0.2029
     33 C           5.9461   -2.0573   32.3359 C.ar    1  UNL1        0.0193
     34 C           6.8232   -1.0983   33.0851 C.ar    1  UNL1        0.0044
     35 C           6.3513   -0.5046   34.3792 C.ar    1  UNL1        0.0345
     36 C           5.0023   -0.8697   34.9242 C.ar    1  UNL1        0.1342
     37 N           4.1252   -1.8286   34.1751 N.ar    1  UNL1       -0.2290
     38 C           4.5971   -2.4224   32.8809 C.ar    1  UNL1        0.1003
     39 N           4.5304   -0.2759   36.2183 N.am    1  UNL1       -0.2694
     40 C           3.8728    1.0723   36.2292 C.2     1  UNL1        0.2267
     41 O           3.6872    1.8266   34.9461 O.2     1  UNL1       -0.2748
     42 H           4.6523   -0.7710   37.0604 H       1  UNL1        0.1563
     43 C           3.4010    1.6661   37.5233 C.3     1  UNL1        0.0769
     44 C           2.2984    1.9320   38.5050 C.3     1  UNL1        0.0096
     45 C           3.6862    2.4286   38.7832 C.3     1  UNL1        0.0096
@<TRIPOS>BOND
     1    17    18    1
     2    18    19    1
     3    19    20    1
     4    20    21    1
     5    21    16    1
     6    16     6    1
     7     6     7   ar
     8     7     8   ar
     9     8     9   ar
    10     9     2    1
    11     2     3   am
    12     3     4    2
    13     3     1    1
    14     1    24    1
    15    24    26    1
    16    26    27   ar
    17    27    28   ar
    18    28    29   ar
    19    29    33    1
    20    33    34   ar
    21    34    35   ar
    22    35    36   ar
    23    36    39    1
    24    39    40   am
    25    40    41    2
    26    40    43    1
    27    43    44    1
    28    44    45    1
    29    36    37   ar
    30    37    38   ar
    31    29    30   ar
    32    30    31   ar
    33    31    32    1
    34     9    10   ar
    35    10    11   ar
    36    11    12    1
    37    12    13    1
    38    12    14    1
    39    12    15    1
    40    21    22    1
    41    22    23    1
    42    23    18    1
    43    11     6   ar
    44    31    26   ar
    45    38    33   ar
    46    45    43    1
    47     2     5    1
    48    24    25    1
    49    39    42    1
@<TRIPOS>MOLECULE
*****
 45 49 0 0 0
SMALL
GASTEIGER

@<TRIPOS>ATOM
      1 C          -1.8035    3.1856   21.3612 C.3     1  UNL1        0.1740
      2 N          -0.4754    1.1227   20.5068 N.am    1  UNL1       -0.2825
      3 C          -0.5725    2.6022   20.7334 C.2     1  UNL1        0.2461
      4 O           0.5614    3.4985   20.3320 O.2     1  UNL1       -0.2729
      5 H          -1.2196    0.5345   20.7703 H       1  UNL1        0.1549
      6 C           3.2177   -0.6276   18.6231 C.ar    1  UNL1       -0.0022
      7 C           2.4150    0.4021   17.8845 C.ar    1  UNL1       -0.0017
      8 C           1.1840    0.9855   18.5124 C.ar    1  UNL1        0.0144
      9 C           0.7557    0.5392   19.8789 C.ar    1  UNL1        0.0503
     10 C           1.5583   -0.4904   20.6175 C.ar    1  UNL1        0.0182
     11 C           2.7893   -1.0739   19.9896 C.ar    1  UNL1        0.0700
     12 C           3.5919   -2.1035   20.7282 C.3     1  UNL1        0.4184
     13 F           4.3946   -3.1332   21.4668 F       1  UNL1       -0.1659
     14 F           4.2054   -1.0228   21.5682 F       1  UNL1       -0.1659
     15 F           2.9785   -3.1843   19.8882 F       1  UNL1       -0.1659
     16 C           4.4486   -1.2110   17.9952 C.3     1  UNL1        0.0992
     17 C           9.4897    2.0295   17.7005 C.3     1  UNL1        0.0897
     18 N           8.2295    1.2193   17.7741 N.3     1  UNL1       -0.2691
     19 C           7.9264    0.4139   19.0027 C.3     1  UNL1        0.0897
     20 C           6.6661   -0.3963   19.0763 C.3     1  UNL1        0.0899
     21 N           5.7089   -0.4009   17.9215 N.3     1  UNL1       -0.2665
     22 C           6.0120    0.4046   16.6930 C.3     1  UNL1        0.0899
     23 C           7.2723    1.2147   16.6193 C.3     1  UNL1        0.0897
     24 N          -1.7150    3.8641   22.6962 N.pl3   1  UNL1       -0.3235
     25 H          -2.0737    4.7737   22.8108 H       1  UNL1        0.1473
     26 C          -1.0799    3.1567   23.8564 C.ar    1  UNL1        0.0728
     27 C           0.2778    2.5372   23.7051 C.ar    1  UNL1        0.0166
     28 C           0.9129    1.8297   24.8653 C.ar    1  UNL1        0.0015
     29 C           0.1903    1.7417   26.1769 C.ar    1  UNL1        0.0038
     30 C          -1.1674    2.3613   26.3281 C.ar    1  UNL1        0.0310
     31 C          -1.8025    3.0687   25.1679 C.ar    1  UNL1        0.1531
     32 F          -3.1602    3.6882   25.3192 F       1  UNL1       -0.2029
     33 C           0.8254    1.0343   27.3371 C.ar    1  UNL1        0.0193
     34 C           2.3007    0.7630   27.3338 C.ar    1  UNL1        0.0044
     35 C           2.9358    0.0556   28.4940 C.ar    1  UNL1        0.0345
     36 C           2.0956   -0.3806   29.6576 C.ar    1  UNL1        0.1342
     37 N           0.6204   -0.1094   29.6609 N.ar    1  UNL1       -0.2290
     38 C          -0.0148    0.5981   28.5007 C.ar    1  UNL1        0.1003
     39 N           2.7307   -1.0881   30.8178 N.am    1  UNL1       -0.2694
     40 C           3.3230   -0.2964   31.9459 C.2     1  UNL1        0.2267
     41 O           3.2802    1.2026   31.9138 O.2     1  UNL1       -0.2748
     42 H           2.7588   -2.0719   30.8389 H       1  UNL1        0.1563
     43 C           3.9581   -1.0039   33.1062 C.3     1  UNL1        0.0769
     44 C           4.3496   -2.2777   33.7945 C.3     1  UNL1        0.0096
     45 C           4.6665   -0.9553   34.4274 C.3     1  UNL1        0.0096
@<TRIPOS>BOND
     1    17    18    1
     2    18    19    1
     3    19    20    1
     4    20    21    1
     5    21    16    1
     6    16     6    1
     7     6     7   ar
     8     7     8   ar
     9     8     9   ar
    10     9     2    1
    11     2     3   am
    12     3     4    2
    13     3     1    1
    14     1    24    1
    15    24    26    1
    16    26    27   ar
    17    27    28   ar
    18    28    29   ar
    19    29    33    1
    20    33    34   ar
    21    34    35   ar
    22    35    36   ar
    23    36    39    1
    24    39    40   am
    25    40    41    2
    26    40    43    1
    27    43    44    1
    28    44    45    1
    29    36    37   ar
    30    37    38   ar
    31    29    30   ar
    32    30    31   ar
    33    31    32    1
    34     9    10   ar
    35    10    11   ar
    36    11    12    1
    37    12    13    1
    38    12    14    1
    39    12    15    1
    40    21    22    1
    41    22    23    1
    42    23    18    1
    43    11     6   ar
    44    31    26   ar
    45    38    33   ar
    46    45    43    1
    47     2     5    1
    48    24    25    1
    49    39    42    1
@<TRIPOS>MOLECULE
*****
 45 49 0 0 0
SMALL
GASTEIGER

@<TRIPOS>ATOM
      1 C           8.8259   -6.7730   29.9734 C.3     1  UNL1        0.1740
      2 N           8.5329   -4.3392   30.8338 N.am    1  UNL1       -0.2825
      3 C           7.9566   -5.5725   30.2041 C.2     1  UNL1        0.2461
      4 O           6.5111   -5.6055   29.8049 O.2     1  UNL1       -0.2729
      5 H           9.4816   -4.3176   31.0958 H       1  UNL1        0.1549
      6 C           5.9250   -0.7376   31.5259 C.ar    1  UNL1       -0.0022
      7 C           6.8886   -0.7563   30.3764 C.ar    1  UNL1       -0.0017
      8 C           7.7578   -1.9567   30.1457 C.ar    1  UNL1        0.0144
      9 C           7.6636   -3.1386   31.0645 C.ar    1  UNL1        0.0503
     10 C           6.7001   -3.1201   32.2140 C.ar    1  UNL1        0.0182
     11 C           5.8308   -1.9196   32.4447 C.ar    1  UNL1        0.0700
     12 C           4.8673   -1.9010   33.5941 C.3     1  UNL1        0.4184
     13 F           3.9038   -1.8824   34.7436 F       1  UNL1       -0.1659
     14 F           3.8888   -2.7015   32.7869 F       1  UNL1       -0.1659
     15 F           5.8458   -1.1005   34.4014 F       1  UNL1       -0.1659
     16 C           5.0558    0.4628   31.7565 C.3     1  UNL1        0.0992
     17 C          -0.4372    0.6955   29.3540 C.3     1  UNL1        0.0897
     18 N           0.9360    0.6374   29.9546 N.3     1  UNL1       -0.2691
     19 C           1.3494    1.6504   30.9807 C.3     1  UNL1        0.0897
     20 C           2.7226    1.5922   31.5814 C.3     1  UNL1        0.0899
     21 N           3.6826    0.5210   31.1559 N.3     1  UNL1       -0.2665
     22 C           3.2692   -0.4920   30.1298 C.3     1  UNL1        0.0899
     23 C           1.8959   -0.4338   29.5292 C.3     1  UNL1        0.0897
     24 N           9.5356   -6.9445   28.6630 N.pl3   1  UNL1       -0.3235
     25 H          10.3904   -7.4315   28.6262 H       1  UNL1        0.1473
     26 C           8.9429   -6.3739   27.4088 C.ar    1  UNL1        0.0728
     27 C           9.1132   -4.9172   27.0941 C.ar    1  UNL1        0.0166
     28 C           8.5205   -4.3465   25.8398 C.ar    1  UNL1        0.0015
     29 C           7.7575   -5.2326   24.9003 C.ar    1  UNL1        0.0038
     30 C           7.5872   -6.6893   25.2151 C.ar    1  UNL1        0.0310
     31 C           8.1799   -7.2599   26.4693 C.ar    1  UNL1        0.1531
     32 F           8.0095   -8.7166   26.7840 F       1  UNL1       -0.2029
     33 C           7.1648   -4.6620   23.6461 C.ar    1  UNL1        0.0193
     34 C           5.8927   -3.8696   23.7107 C.ar    1  UNL1        0.0044
     35 C           5.3001   -3.2990   22.4565 C.ar    1  UNL1        0.0345
     36 C           5.9793   -3.5208   21.1377 C.ar    1  UNL1        0.1342
     37 N           7.2513   -4.3131   21.0730 N.ar    1  UNL1       -0.2290
     38 C           7.8441   -4.8837   22.3273 C.ar    1  UNL1        0.1003
     39 N           5.3867   -2.9502   19.8834 N.am    1  UNL1       -0.2694
     40 C           5.6716   -1.5286   19.4985 C.2     1  UNL1        0.2267
     41 O           6.5492   -0.6777   20.3679 O.2     1  UNL1       -0.2748
     42 H           4.8107   -3.5086   19.3129 H       1  UNL1        0.1563
     43 C           5.0789   -0.9580   18.2443 C.3     1  UNL1        0.0769
     44 C           5.0221    0.1287   17.2119 C.3     1  UNL1        0.0096
     45 C           4.1090   -1.0564   17.1043 C.3     1  UNL1        0.0096
@<TRIPOS>BOND
     1    17    18    1
     2    18    19    1
     3    19    20    1
     4    20    21    1
     5    21    16    1
     6    16     6    1
     7     6     7   ar
     8     7     8   ar
     9     8     9   ar
    10     9     2    1
    11     2     3   am
    12     3     4    2
    13     3     1    1
    14     1    24    1
    15    24    26    1
    16    26    27   ar
    17    27    28   ar
    18    28    29   ar
    19    29    33    1
    20    33    34   ar
    21    34    35   ar
    22    35    36   ar
    23    36    39    1
    24    39    40   am
    25    40    41    2
    26    40    43    1
    27    43    44    1
    28    44    45    1
    29    36    37   ar
    30    37    38   ar
    31    29    30   ar
    32    30    31   ar
    33    31    32    1
    34     9    10   ar
    35    10    11   ar
    36    11    12    1
    37    12    13    1
    38    12    14    1
    39    12    15    1
    40    21    22    1
    41    22    23    1
    42    23    18    1
    43    11     6   ar
    44    31    26   ar
    45    38    33   ar
    46    45    43    1
    47     2     5    1
    48    24    25    1
    49    39    42    1
@<TRIPOS>MOLECULE
*****
 45 49 0 0 0
SMALL
GASTEIGER

@<TRIPOS>ATOM
      1 C           8.6627   -5.0789   26.3525 C.3     1  UNL1        0.1740
      2 N           7.4263   -3.5680   24.6384 N.am    1  UNL1       -0.2825
      3 C           7.9688   -4.9095   25.0335 C.2     1  UNL1        0.2461
      4 O           7.8175   -6.0814   24.1096 O.2     1  UNL1       -0.2729
      5 H           7.5257   -2.7988   25.2448 H       1  UNL1        0.1549
      6 C           5.3446   -3.0595   20.6813 C.ar    1  UNL1       -0.0022
      7 C           4.6420   -3.7444   21.8159 C.ar    1  UNL1       -0.0017
      8 C           5.3359   -3.9139   23.1349 C.ar    1  UNL1        0.0144
      9 C           6.7324   -3.3985   23.3193 C.ar    1  UNL1        0.0503
     10 C           7.4350   -2.7135   22.1848 C.ar    1  UNL1        0.0182
     11 C           6.7411   -2.5440   20.8658 C.ar    1  UNL1        0.0700
     12 C           7.4437   -1.8591   19.7313 C.3     1  UNL1        0.4184
     13 F           8.1464   -1.1742   18.5968 F       1  UNL1       -0.1659
     14 F           8.0891   -3.1575   19.3471 F       1  UNL1       -0.1659
     15 F           6.7984   -0.5607   20.1154 F       1  UNL1       -0.1659
     16 C           4.6507   -2.8900   19.3623 C.3     1  UNL1        0.0992
     17 C           0.9107    1.7239   18.5111 C.3     1  UNL1        0.0897
     18 N           1.8457    0.5704   18.7239 N.3     1  UNL1       -0.2691
     19 C           3.0606    0.4200   17.8571 C.3     1  UNL1        0.0897
     20 C           3.9956   -0.7335   18.0699 C.3     1  UNL1        0.0899
     21 N           3.7157   -1.7365   19.1495 N.3     1  UNL1       -0.2665
     22 C           2.5008   -1.5860   20.0163 C.3     1  UNL1        0.0899
     23 C           1.5658   -0.4326   19.8035 C.3     1  UNL1        0.0897
     24 N           7.9360   -5.7013   27.5078 N.pl3   1  UNL1       -0.3235
     25 H           7.8015   -6.6761   27.5372 H       1  UNL1        0.1473
     26 C           7.4141   -4.8384   28.6182 C.ar    1  UNL1        0.0728
     27 C           6.8382   -3.4879   28.3110 C.ar    1  UNL1        0.0166
     28 C           6.3163   -2.6249   29.4215 C.ar    1  UNL1        0.0015
     29 C           6.3704   -3.1125   30.8390 C.ar    1  UNL1        0.0038
     30 C           6.9463   -4.4631   31.1460 C.ar    1  UNL1        0.0310
     31 C           7.4682   -5.3260   30.0357 C.ar    1  UNL1        0.1531
     32 F           8.0441   -6.6765   30.3428 F       1  UNL1       -0.2029
     33 C           5.8485   -2.2496   31.9494 C.ar    1  UNL1        0.0193
     34 C           4.8078   -2.7836   32.8884 C.ar    1  UNL1        0.0044
     35 C           4.2860   -1.9207   33.9988 C.ar    1  UNL1        0.0345
     36 C           4.8048   -0.5238   34.1702 C.ar    1  UNL1        0.1342
     37 N           5.8454    0.0103   33.2312 N.ar    1  UNL1       -0.2290
     38 C           6.3673   -0.8526   32.1207 C.ar    1  UNL1        0.1003
     39 N           4.2829    0.3392   35.2806 N.am    1  UNL1       -0.2694
     40 C           4.9612    0.3315   36.6185 C.2     1  UNL1        0.2267
     41 O           6.1613   -0.5391   36.8460 O.2     1  UNL1       -0.2748
     42 H           3.4952    0.9105   35.1313 H       1  UNL1        0.1563
     43 C           4.4394    1.1944   37.7289 C.3     1  UNL1        0.0769
     44 C           3.2958    1.6776   38.5708 C.3     1  UNL1        0.0096
     45 C           4.6791    2.2058   38.8104 C.3     1  UNL1        0.0096
@<TRIPOS>BOND
     1    17    18    1
     2    18    19    1
     3    19    20    1
     4    20    21    1
     5    21    16    1
     6    16     6    1
     7     6     7   ar
     8     7     8   ar
     9     8     9   ar
    10     9     2    1
    11     2     3   am
    12     3     4    2
    13     3     1    1
    14     1    24    1
    15    24    26    1
    16    26    27   ar
    17    27    28   ar
    18    28    29   ar
    19    29    33    1
    20    33    34   ar
    21    34    35   ar
    22    35    36   ar
    23    36    39    1
    24    39    40   am
    25    40    41    2
    26    40    43    1
    27    43    44    1
    28    44    45    1
    29    36    37   ar
    30    37    38   ar
    31    29    30   ar
    32    30    31   ar
    33    31    32    1
    34     9    10   ar
    35    10    11   ar
    36    11    12    1
    37    12    13    1
    38    12    14    1
    39    12    15    1
    40    21    22    1
    41    22    23    1
    42    23    18    1
    43    11     6   ar
    44    31    26   ar
    45    38    33   ar
    46    45    43    1
    47     2     5    1
    48    24    25    1
    49    39    42    1
@<TRIPOS>MOLECULE
*****
 45 49 0 0 0
SMALL
GASTEIGER

@<TRIPOS>ATOM
      1 C          -0.7147    4.5846   21.3980 C.3     1  UNL1        0.1740
      2 N           1.3058    3.0040   20.9868 N.am    1  UNL1       -0.2825
      3 C          -0.1759    3.2264   21.0592 C.2     1  UNL1        0.2461
      4 O          -1.1187    2.0905   20.7927 O.2     1  UNL1       -0.2729
      5 H           1.9245    3.7495   21.1616 H       1  UNL1        0.1549
      6 C           2.9224   -1.0708   19.9703 C.ar    1  UNL1       -0.0022
      7 C           2.0916   -0.8800   21.2046 C.ar    1  UNL1       -0.0017
      8 C           1.5527    0.4782   21.5433 C.ar    1  UNL1        0.0144
      9 C           1.8447    1.6457   20.6479 C.ar    1  UNL1        0.0503
     10 C           2.6755    1.4549   19.4137 C.ar    1  UNL1        0.0182
     11 C           3.2144    0.0967   19.0749 C.ar    1  UNL1        0.0700
     12 C           4.0452   -0.0941   17.8406 C.3     1  UNL1        0.4184
     13 F           4.8760   -0.2849   16.6064 F       1  UNL1       -0.1659
     14 F           2.8029   -0.3731   17.0476 F       1  UNL1       -0.1659
     15 F           5.2874    0.1849   18.6337 F       1  UNL1       -0.1659
     16 C           3.4613   -2.4290   19.6315 C.3     1  UNL1        0.0992
     17 C           8.1361   -4.6455   22.6701 C.3     1  UNL1        0.0897
     18 N           6.9674   -4.0914   21.9105 N.3     1  UNL1       -0.2691
     19 C           5.6487   -3.8987   22.5988 C.3     1  UNL1        0.0897
     20 C           4.4800   -3.3446   21.8392 C.3     1  UNL1        0.0899
     21 N           4.6300   -2.9831   20.3912 N.3     1  UNL1       -0.2665
     22 C           5.9487   -3.1758   19.7028 C.3     1  UNL1        0.0899
     23 C           7.1174   -3.7299   20.4625 C.3     1  UNL1        0.0897
     24 N          -1.0673    4.9190   22.8172 N.pl3   1  UNL1       -0.3235
     25 H          -1.6333    5.7004   23.0127 H       1  UNL1        0.1473
     26 C          -0.5575    4.0628   23.9383 C.ar    1  UNL1        0.0728
     27 C          -1.4680    3.0695   24.5972 C.ar    1  UNL1        0.0166
     28 C          -0.9582    2.2132   25.7184 C.ar    1  UNL1        0.0015
     29 C           0.4622    2.3504   26.1807 C.ar    1  UNL1        0.0038
     30 C           1.3727    3.3438   25.5218 C.ar    1  UNL1        0.0310
     31 C           0.8629    4.2000   24.4006 C.ar    1  UNL1        0.1531
     32 F           1.7735    5.1933   23.7418 F       1  UNL1       -0.2029
     33 C           0.9720    1.4943   27.3018 C.ar    1  UNL1        0.0193
     34 C           2.2307    0.6977   27.1247 C.ar    1  UNL1        0.0044
     35 C           2.7405   -0.1584   28.2458 C.ar    1  UNL1        0.0345
     36 C           1.9917   -0.2181   29.5442 C.ar    1  UNL1        0.1342
     37 N           0.7330    0.5783   29.7214 N.ar    1  UNL1       -0.2290
     38 C           0.2231    1.4345   28.6002 C.ar    1  UNL1        0.1003
     39 N           2.5015   -1.0743   30.6653 N.am    1  UNL1       -0.2694
     40 C           3.6455   -0.5992   31.5114 C.2     1  UNL1        0.2267
     41 O           4.2796    0.7320   31.2362 O.2     1  UNL1       -0.2748
     42 H           2.0853   -1.9480   30.8459 H       1  UNL1        0.1563
     43 C           4.1553   -1.4554   32.6325 C.3     1  UNL1        0.0769
     44 C           4.3284   -1.7045   34.1015 C.3     1  UNL1        0.0096
     45 C           4.8652   -2.6892   33.1054 C.3     1  UNL1        0.0096
@<TRIPOS>BOND
     1    17    18    1
     2    18    19    1
     3    19    20    1
     4    20    21    1
     5    21    16    1
     6    16     6    1
     7     6     7   ar
     8     7     8   ar
     9     8     9   ar
    10     9     2    1
    11     2     3   am
    12     3     4    2
    13     3     1    1
    14     1    24    1
    15    24    26    1
    16    26    27   ar
    17    27    28   ar
    18    28    29   ar
    19    29    33    1
    20    33    34   ar
    21    34    35   ar
    22    35    36   ar
    23    36    39    1
    24    39    40   am
    25    40    41    2
    26    40    43    1
    27    43    44    1
    28    44    45    1
    29    36    37   ar
    30    37    38   ar
    31    29    30   ar
    32    30    31   ar
    33    31    32    1
    34     9    10   ar
    35    10    11   ar
    36    11    12    1
    37    12    13    1
    38    12    14    1
    39    12    15    1
    40    21    22    1
    41    22    23    1
    42    23    18    1
    43    11     6   ar
    44    31    26   ar
    45    38    33   ar
    46    45    43    1
    47     2     5    1
    48    24    25    1
    49    39    42    1
@<TRIPOS>MOLECULE
*****
 45 49 0 0 0
SMALL
GASTEIGER

@<TRIPOS>ATOM
      1 C           4.2513   -0.2377   27.8197 C.3     1  UNL1        0.1740
      2 N           3.5788   -1.4239   25.6083 N.am    1  UNL1       -0.2825
      3 C           4.4089   -0.4099   26.3380 C.2     1  UNL1        0.2461
      4 O           5.3967    0.4321   25.5860 O.2     1  UNL1       -0.2729
      5 H           2.9305   -1.9765   26.1019 H       1  UNL1        0.1549
      6 C           4.0517   -1.9405   21.1631 C.ar    1  UNL1       -0.0022
      7 C           4.8375   -2.8026   22.1062 C.ar    1  UNL1       -0.0017
      8 C           4.6799   -2.6304   23.5879 C.ar    1  UNL1        0.0144
      9 C           3.7364   -1.5961   24.1266 C.ar    1  UNL1        0.0503
     10 C           2.9505   -0.7341   23.1835 C.ar    1  UNL1        0.0182
     11 C           3.1082   -0.9063   21.7018 C.ar    1  UNL1        0.0700
     12 C           2.3223   -0.0443   20.7588 C.3     1  UNL1        0.4184
     13 F           1.5364    0.8177   19.8158 F       1  UNL1       -0.1659
     14 F           1.2315   -1.0734   20.7271 F       1  UNL1       -0.1659
     15 F           3.4131    0.9848   20.7904 F       1  UNL1       -0.1659
     16 C           4.2093   -2.1128   19.6814 C.3     1  UNL1        0.0992
     17 C           7.7881    1.5843   16.5953 C.3     1  UNL1        0.0897
     18 N           6.8934    0.6600   17.3669 N.3     1  UNL1       -0.2691
     19 C           5.5870    0.2163   16.7784 C.3     1  UNL1        0.0897
     20 C           4.6923   -0.7080   17.5499 C.3     1  UNL1        0.0899
     21 N           5.1040   -1.1885   18.9099 N.3     1  UNL1       -0.2665
     22 C           6.4104   -0.7447   19.4983 C.3     1  UNL1        0.0899
     23 C           7.3051    0.1795   18.7268 C.3     1  UNL1        0.0897
     24 N           3.3602    0.8419   28.3588 N.pl3   1  UNL1       -0.3235
     25 H           3.4956    1.1812   29.2730 H       1  UNL1        0.1473
     26 C           2.2628    1.4046   27.5049 C.ar    1  UNL1        0.0728
     27 C           2.5428    2.5578   26.5876 C.ar    1  UNL1        0.0166
     28 C           1.4454    3.1205   25.7336 C.ar    1  UNL1        0.0015
     29 C           0.0680    2.5299   25.7971 C.ar    1  UNL1        0.0038
     30 C          -0.2119    1.3766   26.7146 C.ar    1  UNL1        0.0310
     31 C           0.8854    0.8140   27.5684 C.ar    1  UNL1        0.1531
     32 F           0.6054   -0.3393   28.4858 F       1  UNL1       -0.2029
     33 C          -1.0294    3.0926   24.9433 C.ar    1  UNL1        0.0193
     34 C          -2.3557    3.4340   25.5553 C.ar    1  UNL1        0.0044
     35 C          -3.4531    3.9967   24.7014 C.ar    1  UNL1        0.0345
     36 C          -3.2242    4.2179   23.2356 C.ar    1  UNL1        0.1342
     37 N          -1.8980    3.8765   22.6236 N.ar    1  UNL1       -0.2290
     38 C          -0.8006    3.3138   23.4774 C.ar    1  UNL1        0.1003
     39 N          -4.3216    4.7806   22.3817 N.am    1  UNL1       -0.2694
     40 C          -5.0464    3.8949   21.4120 C.2     1  UNL1        0.2267
     41 O          -4.6737    2.4465   21.2962 O.2     1  UNL1       -0.2748
     42 H          -4.5662    5.7312   22.4577 H       1  UNL1        0.1563
     43 C          -6.1438    4.4575   20.5581 C.3     1  UNL1        0.0769
     44 C          -7.2563    5.4430   20.3553 C.3     1  UNL1        0.0096
     45 C          -6.9321    4.4466   19.2820 C.3     1  UNL1        0.0096
@<TRIPOS>BOND
     1    17    18    1
     2    18    19    1
     3    19    20    1
     4    20    21    1
     5    21    16    1
     6    16     6    1
     7     6     7   ar
     8     7     8   ar
     9     8     9   ar
    10     9     2    1
    11     2     3   am
    12     3     4    2
    13     3     1    1
    14     1    24    1
    15    24    26    1
    16    26    27   ar
    17    27    28   ar
    18    28    29   ar
    19    29    33    1
    20    33    34   ar
    21    34    35   ar
    22    35    36   ar
    23    36    39    1
    24    39    40   am
    25    40    41    2
    26    40    43    1
    27    43    44    1
    28    44    45    1
    29    36    37   ar
    30    37    38   ar
    31    29    30   ar
    32    30    31   ar
    33    31    32    1
    34     9    10   ar
    35    10    11   ar
    36    11    12    1
    37    12    13    1
    38    12    14    1
    39    12    15    1
    40    21    22    1
    41    22    23    1
    42    23    18    1
    43    11     6   ar
    44    31    26   ar
    45    38    33   ar
    46    45    43    1
    47     2     5    1
    48    24    25    1
    49    39    42    1
@<TRIPOS>MOLECULE
*****
 45 49 0 0 0
SMALL
GASTEIGER

@<TRIPOS>ATOM
      1 C           2.3400   -0.1093   28.2102 C.3     1  UNL1        0.1740
      2 N           0.2498    0.6500   26.8670 N.am    1  UNL1       -0.2825
      3 C           1.6026    0.9475   27.4425 C.2     1  UNL1        0.2461
      4 O           2.2181    2.3019   27.2504 O.2     1  UNL1       -0.2729
      5 H          -0.1541   -0.2389   26.9931 H       1  UNL1        0.1549
      6 C          -1.9625    3.8205   24.5639 C.ar    1  UNL1       -0.0022
      7 C          -0.8212    3.0872   23.9236 C.ar    1  UNL1       -0.0017
      8 C          -0.0838    2.0304   24.6913 C.ar    1  UNL1        0.0144
      9 C          -0.4876    1.7069   26.0993 C.ar    1  UNL1        0.0503
     10 C          -1.6288    2.4402   26.7395 C.ar    1  UNL1        0.0182
     11 C          -2.3663    3.4970   25.9718 C.ar    1  UNL1        0.0700
     12 C          -3.5075    4.2303   26.6120 C.3     1  UNL1        0.4184
     13 F          -4.6486    4.9636   27.2522 F       1  UNL1       -0.1659
     14 F          -2.5367    5.1612   27.2762 F       1  UNL1       -0.1659
     15 F          -4.4782    3.2994   25.9479 F       1  UNL1       -0.1659
     16 C          -2.6998    4.8773   23.7962 C.3     1  UNL1        0.0992
     17 C          -6.1068    3.3470   19.1004 C.3     1  UNL1        0.0897
     18 N          -5.2551    3.7296   20.2743 N.3     1  UNL1       -0.2691
     19 C          -5.8983    4.1302   21.5688 C.3     1  UNL1        0.0897
     20 C          -5.0466    4.5128   22.7427 C.3     1  UNL1        0.0899
     21 N          -3.5516    4.4948   22.6222 N.3     1  UNL1       -0.2665
     22 C          -2.9083    4.0942   21.3277 C.3     1  UNL1        0.0899
     23 C          -3.7601    3.7116   20.1538 C.3     1  UNL1        0.0897
     24 N           1.8205   -0.5706   29.5396 N.pl3   1  UNL1       -0.3235
     25 H           1.2743   -1.3876   29.5981 H       1  UNL1        0.1473
     26 C           2.1332    0.2129   30.7799 C.ar    1  UNL1        0.0728
     27 C           3.2559   -0.2183   31.6763 C.ar    1  UNL1        0.0166
     28 C           3.5686    0.5653   32.9166 C.ar    1  UNL1        0.0015
     29 C           2.7586    1.7800   33.2605 C.ar    1  UNL1        0.0038
     30 C           1.6358    2.2112   32.3640 C.ar    1  UNL1        0.0310
     31 C           1.3231    1.4277   31.1238 C.ar    1  UNL1        0.1531
     32 F           0.2004    1.8589   30.2274 F       1  UNL1       -0.2029
     33 C           3.0712    2.5635   34.5007 C.ar    1  UNL1        0.0193
     34 C           2.0448    3.4911   35.0806 C.ar    1  UNL1        0.0044
     35 C           2.3575    4.2746   36.3208 C.ar    1  UNL1        0.0345
     36 C           3.6966    4.1306   36.9813 C.ar    1  UNL1        0.1342
     37 N           4.7229    3.2031   36.4016 N.ar    1  UNL1       -0.2290
     38 C           4.4103    2.4195   35.1612 C.ar    1  UNL1        0.1003
     39 N           4.0092    4.9141   38.2216 N.am    1  UNL1       -0.2694
     40 C           3.7512    4.3149   39.5723 C.2     1  UNL1        0.2267
     41 O           3.1806    2.9320   39.6827 O.2     1  UNL1       -0.2748
     42 H           4.3838    5.8217   38.1491 H       1  UNL1        0.1563
     43 C           4.0639    5.0984   40.8126 C.3     1  UNL1        0.0769
     44 C           4.1845    5.1734   42.3058 C.3     1  UNL1        0.0096
     45 C           4.4849    6.3805   41.4675 C.3     1  UNL1        0.0096
@<TRIPOS>BOND
     1    17    18    1
     2    18    19    1
     3    19    20    1
     4    20    21    1
     5    21    16    1
     6    16     6    1
     7     6     7   ar
     8     7     8   ar
     9     8     9   ar
    10     9     2    1
    11     2     3   am
    12     3     4    2
    13     3     1    1
    14     1    24    1
    15    24    26    1
    16    26    27   ar
    17    27    28   ar
    18    28    29   ar
    19    29    33    1
    20    33    34   ar
    21    34    35   ar
    22    35    36   ar
    23    36    39    1
    24    39    40   am
    25    40    41    2
    26    40    43    1
    27    43    44    1
    28    44    45    1
    29    36    37   ar
    30    37    38   ar
    31    29    30   ar
    32    30    31   ar
    33    31    32    1
    34     9    10   ar
    35    10    11   ar
    36    11    12    1
    37    12    13    1
    38    12    14    1
    39    12    15    1
    40    21    22    1
    41    22    23    1
    42    23    18    1
    43    11     6   ar
    44    31    26   ar
    45    38    33   ar
    46    45    43    1
    47     2     5    1
    48    24    25    1
    49    39    42    1
