@<TRIPOS>MOLECULE
*****
 24 26 0 0 0
SMALL
GASTEIGER

@<TRIPOS>ATOM
      1 C          -4.4667  -19.8604   20.9391 C.3     1  UNL1        0.0838
      2 C          -5.3549  -20.0243   19.7416 C.3     1  UNL1        0.0437
      3 C          -6.7647  -19.7397   20.1676 C.ar    1  UNL1       -0.0247
      4 C          -8.0617  -19.7460   19.4141 C.ar    1  UNL1       -0.0045
      5 C          -9.3416  -19.4125   20.1215 C.ar    1  UNL1        0.0012
      6 C          -9.3246  -19.0727   21.5824 C.ar    1  UNL1        0.0173
      7 C          -8.0277  -19.0664   22.3359 C.ar    1  UNL1       -0.0030
      8 C          -6.7477  -19.3999   21.6285 C.ar    1  UNL1       -0.0246
      9 C          -5.3275  -19.4745   22.1053 C.3     1  UNL1        0.0438
     10 C         -10.6047  -18.7392   22.2898 C.ar    1  UNL1        0.0815
     11 C         -11.7332  -18.0996   21.5366 C.ar    1  UNL1        0.0215
     12 C         -13.0133  -17.7661   22.2439 C.ar    1  UNL1        0.0328
     13 C         -13.1647  -18.0722   23.7045 C.ar    1  UNL1        0.1592
     14 F         -14.4447  -17.7388   24.4119 F       1  UNL1       -0.2025
     15 C         -12.0361  -18.7118   24.4578 C.ar    1  UNL1        0.1283
     16 N         -10.7562  -19.0453   23.7504 N.ar    1  UNL1       -0.2415
     17 N          -2.9788  -20.0493   20.9657 N.3     1  UNL1       -0.1841
     18 H          -2.7511  -20.4667   21.8681 H       1  UNL1        0.1484
     19 S          -2.0697  -18.8688   20.7929 S.O2    1  UNL1        0.0390
     20 O          -1.7323  -18.9148   22.2537 O.2     1  UNL1       -0.1576
     21 O          -2.4071  -18.8229   19.3321 O.2     1  UNL1       -0.1576
     22 C          -1.5409  -16.3577   21.1988 C.3     1  UNL1        0.0270
     23 C          -1.1606  -17.6883   20.6201 C.3     1  UNL1        0.1457
     24 C           0.1289  -17.8384   19.8687 C.3     1  UNL1        0.0270
@<TRIPOS>BOND
     1    22    23    1
     2    23    24    1
     3    23    19    1
     4    19    20    2
     5    19    21    2
     6    19    17    1
     7     1    17    1
     8     1     2    1
     9     2     3    1
    10     3     4   ar
    11     4     5   ar
    12     5     6   ar
    13     6    10    1
    14    10    11   ar
    15    11    12   ar
    16    12    13   ar
    17    13    14    1
    18    13    15   ar
    19    15    16   ar
    20     6     7   ar
    21     7     8   ar
    22     8     9    1
    23     9     1    1
    24     8     3   ar
    25    16    10   ar
    26    17    18    1
@<TRIPOS>MOLECULE
*****
 24 26 0 0 0
SMALL
GASTEIGER

@<TRIPOS>ATOM
      1 C          -3.8709  -17.2509   23.1107 C.3     1  UNL1        0.0838
      2 C          -4.3799  -16.0149   23.7912 C.3     1  UNL1        0.0437
      3 C          -5.8749  -16.1098   23.8673 C.ar    1  UNL1       -0.0247
      4 C          -6.9120  -15.1845   24.4316 C.ar    1  UNL1       -0.0045
      5 C          -8.3641  -15.5540   24.3623 C.ar    1  UNL1        0.0012
      6 C          -8.7791  -16.8487   23.7287 C.ar    1  UNL1        0.0173
      7 C          -7.7421  -17.7740   23.1645 C.ar    1  UNL1       -0.0030
      8 C          -6.2900  -17.4045   23.2337 C.ar    1  UNL1       -0.0246
      9 C          -5.0515  -18.1097   22.7661 C.3     1  UNL1        0.0438
     10 C         -10.2313  -17.2182   23.6595 C.ar    1  UNL1        0.0815
     11 C         -11.1557  -16.4602   22.7534 C.ar    1  UNL1        0.0215
     12 C         -12.6079  -16.8297   22.6841 C.ar    1  UNL1        0.0328
     13 C         -13.1356  -17.9571   23.5210 C.ar    1  UNL1        0.1592
     14 F         -14.5877  -18.3266   23.4518 F       1  UNL1       -0.2025
     15 C         -12.2112  -18.7150   24.4272 C.ar    1  UNL1        0.1283
     16 N         -10.7591  -18.3456   24.4964 N.ar    1  UNL1       -0.2415
     17 N          -2.4338  -17.5718   22.8249 N.3     1  UNL1       -0.1841
     18 H          -1.8767  -16.8289   23.2470 H       1  UNL1        0.1484
     19 S          -1.9644  -17.7129   21.4073 S.O2    1  UNL1        0.0390
     20 O          -1.5476  -19.1265   21.6860 O.2     1  UNL1       -0.1576
     21 O          -2.3813  -16.2992   21.1286 O.2     1  UNL1       -0.1576
     22 C          -0.0276  -17.9372   19.6902 C.3     1  UNL1        0.0270
     23 C          -1.4950  -17.8540   19.9896 C.3     1  UNL1        0.1457
     24 C          -2.4931  -17.9120   18.8713 C.3     1  UNL1        0.0270
@<TRIPOS>BOND
     1    22    23    1
     2    23    24    1
     3    23    19    1
     4    19    20    2
     5    19    21    2
     6    19    17    1
     7     1    17    1
     8     1     2    1
     9     2     3    1
    10     3     4   ar
    11     4     5   ar
    12     5     6   ar
    13     6    10    1
    14    10    11   ar
    15    11    12   ar
    16    12    13   ar
    17    13    14    1
    18    13    15   ar
    19    15    16   ar
    20     6     7   ar
    21     7     8   ar
    22     8     9    1
    23     9     1    1
    24     8     3   ar
    25    16    10   ar
    26    17    18    1
@<TRIPOS>MOLECULE
*****
 24 26 0 0 0
SMALL
GASTEIGER

@<TRIPOS>ATOM
      1 C          -4.4067  -19.2092   21.8253 C.3     1  UNL1        0.0838
      2 C          -4.5357  -17.8996   22.5452 C.3     1  UNL1        0.0437
      3 C          -5.9836  -17.6949   22.8794 C.ar    1  UNL1       -0.0247
      4 C          -6.7035  -16.5841   23.5848 C.ar    1  UNL1       -0.0045
      5 C          -8.1894  -16.6564   23.7769 C.ar    1  UNL1        0.0012
      6 C          -8.9553  -17.8395   23.2636 C.ar    1  UNL1        0.0173
      7 C          -8.2354  -18.9504   22.5582 C.ar    1  UNL1       -0.0030
      8 C          -6.7495  -18.8781   22.3661 C.ar    1  UNL1       -0.0246
      9 C          -5.7750  -19.8139   21.7146 C.3     1  UNL1        0.0438
     10 C         -10.4412  -17.9118   23.4557 C.ar    1  UNL1        0.0815
     11 C         -11.0165  -18.7789   24.5360 C.ar    1  UNL1        0.0215
     12 C         -12.5025  -18.8512   24.7281 C.ar    1  UNL1        0.0328
     13 C         -13.4131  -18.0563   23.8399 C.ar    1  UNL1        0.1592
     14 F         -14.8989  -18.1285   24.0320 F       1  UNL1       -0.2025
     15 C         -12.8377  -17.1891   22.7596 C.ar    1  UNL1        0.1283
     16 N         -11.3518  -17.1168   22.5675 N.ar    1  UNL1       -0.2415
     17 N          -3.1332  -19.8089   21.3071 N.3     1  UNL1       -0.1841
     18 H          -2.5846  -20.0842   22.1217 H       1  UNL1        0.1484
     19 S          -2.2265  -18.9996   20.4279 S.O2    1  UNL1        0.0390
     20 O          -1.2428  -18.8787   21.5537 O.2     1  UNL1       -0.1576
     21 O          -3.2103  -19.1206   19.3021 O.2     1  UNL1       -0.1576
     22 C          -1.8098  -17.6939   18.2207 C.3     1  UNL1        0.0270
     23 C          -1.3198  -18.1903   19.5487 C.3     1  UNL1        0.1457
     24 C           0.0769  -17.8775   19.9974 C.3     1  UNL1        0.0270
@<TRIPOS>BOND
     1    22    23    1
     2    23    24    1
     3    23    19    1
     4    19    20    2
     5    19    21    2
     6    19    17    1
     7     1    17    1
     8     1     2    1
     9     2     3    1
    10     3     4   ar
    11     4     5   ar
    12     5     6   ar
    13     6    10    1
    14    10    11   ar
    15    11    12   ar
    16    12    13   ar
    17    13    14    1
    18    13    15   ar
    19    15    16   ar
    20     6     7   ar
    21     7     8   ar
    22     8     9    1
    23     9     1    1
    24     8     3   ar
    25    16    10   ar
    26    17    18    1
@<TRIPOS>MOLECULE
*****
 24 26 0 0 0
SMALL
GASTEIGER

@<TRIPOS>ATOM
      1 C          -9.0036  -18.3430   23.7594 C.3     1  UNL1        0.0838
      2 C          -8.7419  -19.5501   22.9083 C.3     1  UNL1        0.0437
      3 C          -7.3642  -19.4195   22.3296 C.ar    1  UNL1       -0.0247
      4 C          -6.5705  -20.3068   21.4171 C.ar    1  UNL1       -0.0045
      5 C          -5.1871  -19.9063   20.9981 C.ar    1  UNL1        0.0012
      6 C          -4.5973  -18.6184   21.4915 C.ar    1  UNL1        0.0173
      7 C          -5.3909  -17.7311   22.4040 C.ar    1  UNL1       -0.0030
      8 C          -6.7744  -18.1316   22.8231 C.ar    1  UNL1       -0.0246
      9 C          -7.7876  -17.4663   23.7067 C.3     1  UNL1        0.0438
     10 C          -3.2138  -18.2179   21.0724 C.ar    1  UNL1        0.0815
     11 C          -2.3625  -19.1712   20.2873 C.ar    1  UNL1        0.0215
     12 C          -0.9789  -18.7707   19.8682 C.ar    1  UNL1        0.0328
     13 C          -0.4468  -17.4169   20.2343 C.ar    1  UNL1        0.1592
     14 F           0.9366  -17.0164   19.8152 F       1  UNL1       -0.2025
     15 C          -1.2982  -16.4636   21.0194 C.ar    1  UNL1        0.1283
     16 N          -2.6817  -16.8641   21.4384 N.ar    1  UNL1       -0.2415
     17 N         -10.2605  -18.0619   24.5282 N.3     1  UNL1       -0.1841
     18 H         -10.3431  -18.7928   25.2348 H       1  UNL1        0.1484
     19 S         -11.5782  -17.9989   23.8142 S.O2    1  UNL1        0.0390
     20 O         -12.0464  -19.2058   24.5719 O.2     1  UNL1       -0.1576
     21 O         -11.1099  -16.7921   23.0564 O.2     1  UNL1       -0.1576
     22 C         -14.1753  -18.0249   23.8780 C.3     1  UNL1        0.0270
     23 C         -12.8959  -17.9361   23.1002 C.3     1  UNL1        0.1457
     24 C         -12.9340  -17.7843   21.6084 C.3     1  UNL1        0.0270
@<TRIPOS>BOND
     1    22    23    1
     2    23    24    1
     3    23    19    1
     4    19    20    2
     5    19    21    2
     6    19    17    1
     7     1    17    1
     8     1     2    1
     9     2     3    1
    10     3     4   ar
    11     4     5   ar
    12     5     6   ar
    13     6    10    1
    14    10    11   ar
    15    11    12   ar
    16    12    13   ar
    17    13    14    1
    18    13    15   ar
    19    15    16   ar
    20     6     7   ar
    21     7     8   ar
    22     8     9    1
    23     9     1    1
    24     8     3   ar
    25    16    10   ar
    26    17    18    1
@<TRIPOS>MOLECULE
*****
 24 26 0 0 0
SMALL
GASTEIGER

@<TRIPOS>ATOM
      1 C         -10.8021   -2.8976   18.2712 C.3     1  UNL1        0.0838
      2 C         -10.8752   -1.4792   17.7887 C.3     1  UNL1        0.0437
      3 C         -12.2065   -0.9196   18.1942 C.ar    1  UNL1       -0.0247
      4 C         -12.8330    0.4280   17.9906 C.ar    1  UNL1       -0.0045
      5 C         -14.2092    0.7030   18.5201 C.ar    1  UNL1        0.0012
      6 C         -14.9589   -0.3696   19.2532 C.ar    1  UNL1        0.0173
      7 C         -14.3325   -1.7172   19.4568 C.ar    1  UNL1       -0.0030
      8 C         -12.9563   -1.9922   18.9273 C.ar    1  UNL1       -0.0246
      9 C         -12.0882   -3.2146   18.9749 C.3     1  UNL1        0.0438
     10 C         -16.3352   -0.0946   19.7827 C.ar    1  UNL1        0.0815
     11 C         -16.6325    1.2127   20.4554 C.ar    1  UNL1        0.0215
     12 C         -18.0088    1.4878   20.9849 C.ar    1  UNL1        0.0328
     13 C         -19.0877    0.4555   20.8416 C.ar    1  UNL1        0.1592
     14 F         -20.4639    0.7305   21.3711 F       1  UNL1       -0.2025
     15 C         -18.7902   -0.8518   20.1689 C.ar    1  UNL1        0.1283
     16 N         -17.4140   -1.1268   19.6394 N.ar    1  UNL1       -0.2415
     17 N          -9.6458   -3.8344   18.0830 N.3     1  UNL1       -0.1841
     18 H          -9.2128   -3.5925   17.1917 H       1  UNL1        0.1484
     19 S          -9.8766   -5.3164   18.0642 S.O2    1  UNL1        0.0390
     20 O          -9.3308   -5.4192   19.4575 O.2     1  UNL1       -0.1576
     21 O         -10.4225   -5.2136   16.6708 O.2     1  UNL1       -0.1576
     22 C         -11.1424   -7.3848   17.1315 C.3     1  UNL1        0.0270
     23 C         -10.1075   -6.7985   18.0453 C.3     1  UNL1        0.1457
     24 C          -9.3033   -7.6941   18.9404 C.3     1  UNL1        0.0270
@<TRIPOS>BOND
     1    22    23    1
     2    23    24    1
     3    23    19    1
     4    19    20    2
     5    19    21    2
     6    19    17    1
     7     1    17    1
     8     1     2    1
     9     2     3    1
    10     3     4   ar
    11     4     5   ar
    12     5     6   ar
    13     6    10    1
    14    10    11   ar
    15    11    12   ar
    16    12    13   ar
    17    13    14    1
    18    13    15   ar
    19    15    16   ar
    20     6     7   ar
    21     7     8   ar
    22     8     9    1
    23     9     1    1
    24     8     3   ar
    25    16    10   ar
    26    17    18    1
@<TRIPOS>MOLECULE
*****
 24 26 0 0 0
SMALL
GASTEIGER

@<TRIPOS>ATOM
      1 C         -15.7588    0.4507   19.3572 C.3     1  UNL1        0.0838
      2 C         -14.4961    0.8978   18.6822 C.3     1  UNL1        0.0437
      3 C         -13.5669   -0.2777   18.6117 C.ar    1  UNL1       -0.0247
      4 C         -12.1829   -0.4310   18.0541 C.ar    1  UNL1       -0.0045
      5 C         -11.4874   -1.7579   18.1280 C.ar    1  UNL1        0.0012
      6 C         -12.1758   -2.9314   18.7596 C.ar    1  UNL1        0.0173
      7 C         -13.5598   -2.7781   19.3172 C.ar    1  UNL1       -0.0030
      8 C         -14.2554   -1.4512   19.2432 C.ar    1  UNL1       -0.0246
      9 C         -15.6100   -1.0010   19.7040 C.3     1  UNL1        0.0438
     10 C         -11.4802   -4.2584   18.8334 C.ar    1  UNL1        0.0815
     11 C          -9.9877   -4.3161   18.9720 C.ar    1  UNL1        0.0215
     12 C          -9.2921   -5.6430   19.0459 C.ar    1  UNL1        0.0328
     13 C         -10.0890   -6.9122   18.9812 C.ar    1  UNL1        0.1592
     14 F          -9.3934   -8.2391   19.0551 F       1  UNL1       -0.2025
     15 C         -11.5815   -6.8544   18.8426 C.ar    1  UNL1        0.1283
     16 N         -12.2770   -5.5276   18.7688 N.ar    1  UNL1       -0.2415
     17 N         -16.9595    1.3053   19.6365 N.3     1  UNL1       -0.1841
     18 H         -17.0435    1.9586   18.8577 H       1  UNL1        0.1484
     19 S         -17.0239    2.1203   20.8941 S.O2    1  UNL1        0.0390
     20 O         -17.6693    0.9692   21.6070 O.2     1  UNL1       -0.1576
     21 O         -16.3785    3.2714   20.1812 O.2     1  UNL1       -0.1576
     22 C         -16.7773    4.4021   22.1118 C.3     1  UNL1        0.0270
     23 C         -17.0883    2.9353   22.1518 C.3     1  UNL1        0.1457
     24 C         -17.4637    2.2833   23.4495 C.3     1  UNL1        0.0270
@<TRIPOS>BOND
     1    22    23    1
     2    23    24    1
     3    23    19    1
     4    19    20    2
     5    19    21    2
     6    19    17    1
     7     1    17    1
     8     1     2    1
     9     2     3    1
    10     3     4   ar
    11     4     5   ar
    12     5     6   ar
    13     6    10    1
    14    10    11   ar
    15    11    12   ar
    16    12    13   ar
    17    13    14    1
    18    13    15   ar
    19    15    16   ar
    20     6     7   ar
    21     7     8   ar
    22     8     9    1
    23     9     1    1
    24     8     3   ar
    25    16    10   ar
    26    17    18    1
@<TRIPOS>MOLECULE
*****
 24 26 0 0 0
SMALL
GASTEIGER

@<TRIPOS>ATOM
      1 C         -13.9939   -7.0540   19.0531 C.3     1  UNL1        0.0838
      2 C         -12.6949   -6.3043   19.0756 C.3     1  UNL1        0.0437
      3 C         -13.0067   -4.8384   19.1380 C.ar    1  UNL1       -0.0247
      4 C         -12.1250   -3.6257   19.1822 C.ar    1  UNL1       -0.0045
      5 C         -12.7350   -2.2568   19.2426 C.ar    1  UNL1        0.0012
      6 C         -14.2268   -2.1004   19.2588 C.ar    1  UNL1        0.0173
      7 C         -15.1085   -3.3131   19.2145 C.ar    1  UNL1       -0.0030
      8 C         -14.4984   -4.6821   19.1542 C.ar    1  UNL1       -0.0246
      9 C         -15.1086   -6.0514   19.1017 C.3     1  UNL1        0.0438
     10 C         -14.8368   -0.7314   19.3191 C.ar    1  UNL1        0.0815
     11 C         -16.0944   -0.5046   20.1046 C.ar    1  UNL1        0.0215
     12 C         -16.7044    0.8645   20.1650 C.ar    1  UNL1        0.0328
     13 C         -16.0568    2.0067   19.4399 C.ar    1  UNL1        0.1592
     14 F         -16.6667    3.3757   19.5002 F       1  UNL1       -0.2025
     15 C         -14.7991    1.7799   18.6544 C.ar    1  UNL1        0.1283
     16 N         -14.1892    0.4109   18.5940 N.ar    1  UNL1       -0.2415
     17 N         -14.1508   -8.5446   18.9927 N.3     1  UNL1       -0.1841
     18 H         -13.4617   -8.8862   18.3228 H       1  UNL1        0.1484
     19 S         -15.4688   -9.1448   18.6024 S.O2    1  UNL1        0.0390
     20 O         -15.8095   -9.3383   20.0503 O.2     1  UNL1       -0.1576
     21 O         -15.1281   -8.9513   17.1545 O.2     1  UNL1       -0.1576
     22 C         -17.1166  -11.1535   18.6090 C.3     1  UNL1        0.0270
     23 C         -16.7869   -9.7451   18.2121 C.3     1  UNL1        0.1457
     24 C         -17.7754   -8.9369   17.4248 C.3     1  UNL1        0.0270
@<TRIPOS>BOND
     1    22    23    1
     2    23    24    1
     3    23    19    1
     4    19    20    2
     5    19    21    2
     6    19    17    1
     7     1    17    1
     8     1     2    1
     9     2     3    1
    10     3     4   ar
    11     4     5   ar
    12     5     6   ar
    13     6    10    1
    14    10    11   ar
    15    11    12   ar
    16    12    13   ar
    17    13    14    1
    18    13    15   ar
    19    15    16   ar
    20     6     7   ar
    21     7     8   ar
    22     8     9    1
    23     9     1    1
    24     8     3   ar
    25    16    10   ar
    26    17    18    1
@<TRIPOS>MOLECULE
*****
 24 26 0 0 0
SMALL
GASTEIGER

@<TRIPOS>ATOM
      1 C         -11.0049   -2.7749   18.5550 C.3     1  UNL1        0.0838
      2 C         -12.3119   -3.1840   19.1669 C.3     1  UNL1        0.0437
      3 C         -13.2349   -2.0025   19.1217 C.ar    1  UNL1       -0.0247
      4 C         -14.6509   -1.8169   19.5805 C.ar    1  UNL1       -0.0045
      5 C         -15.3303   -0.4919   19.3995 C.ar    1  UNL1        0.0012
      6 C         -14.5938    0.6474   18.7597 C.ar    1  UNL1        0.0173
      7 C         -13.1778    0.4618   18.3010 C.ar    1  UNL1       -0.0030
      8 C         -12.4984   -0.8631   18.4820 C.ar    1  UNL1       -0.0246
      9 C         -11.1202   -1.3405   18.1317 C.3     1  UNL1        0.0438
     10 C         -15.2733    1.9725   18.5788 C.ar    1  UNL1        0.0815
     11 C         -16.2178    2.1806   17.4322 C.ar    1  UNL1        0.0215
     12 C         -16.8973    3.5056   17.2513 C.ar    1  UNL1        0.0328
     13 C         -16.6322    4.6224   18.2168 C.ar    1  UNL1        0.1592
     14 F         -17.3117    5.9474   18.0359 F       1  UNL1       -0.2025
     15 C         -15.6877    4.4143   19.3634 C.ar    1  UNL1        0.1283
     16 N         -15.0082    3.0893   19.5444 N.ar    1  UNL1       -0.2415
     17 N          -9.7951   -3.6471   18.3947 N.3     1  UNL1       -0.1841
     18 H          -9.3041   -3.3194   17.5628 H       1  UNL1        0.1484
     19 S          -9.9547   -5.1312   18.2467 S.O2    1  UNL1        0.0390
     20 O         -10.5821   -4.9294   16.8993 O.2     1  UNL1       -0.1576
     21 O          -9.3273   -5.3329   19.5942 O.2     1  UNL1       -0.1576
     22 C          -9.2920   -7.5457   18.9402 C.3     1  UNL1        0.0270
     23 C         -10.1143   -6.6153   18.0987 C.3     1  UNL1        0.1457
     24 C         -11.0963   -7.1691   17.1093 C.3     1  UNL1        0.0270
@<TRIPOS>BOND
     1    22    23    1
     2    23    24    1
     3    23    19    1
     4    19    20    2
     5    19    21    2
     6    19    17    1
     7     1    17    1
     8     1     2    1
     9     2     3    1
    10     3     4   ar
    11     4     5   ar
    12     5     6   ar
    13     6    10    1
    14    10    11   ar
    15    11    12   ar
    16    12    13   ar
    17    13    14    1
    18    13    15   ar
    19    15    16   ar
    20     6     7   ar
    21     7     8   ar
    22     8     9    1
    23     9     1    1
    24     8     3   ar
    25    16    10   ar
    26    17    18    1
@<TRIPOS>MOLECULE
*****
 24 26 0 0 0
SMALL
GASTEIGER

@<TRIPOS>ATOM
      1 C         -13.5988   -7.3533   18.9002 C.3     1  UNL1        0.0838
      2 C         -12.1779   -6.8934   19.0393 C.3     1  UNL1        0.0437
      3 C         -12.1493   -5.4078   18.8341 C.ar    1  UNL1       -0.0247
      4 C         -11.0267   -4.4131   18.8550 C.ar    1  UNL1       -0.0045
      5 C         -11.3074   -2.9602   18.6100 C.ar    1  UNL1        0.0012
      6 C         -12.7107   -2.5019   18.3441 C.ar    1  UNL1        0.0173
      7 C         -13.8333   -3.4965   18.3231 C.ar    1  UNL1       -0.0030
      8 C         -13.5525   -4.9495   18.5681 C.ar    1  UNL1       -0.0246
      9 C         -14.4484   -6.1519   18.6090 C.3     1  UNL1        0.0438
     10 C         -12.9914   -1.0488   18.0991 C.ar    1  UNL1        0.0815
     11 C         -14.2656   -0.4362   18.6001 C.ar    1  UNL1        0.0215
     12 C         -14.5463    1.0168   18.3551 C.ar    1  UNL1        0.0328
     13 C         -13.5528    1.8572   17.6090 C.ar    1  UNL1        0.1592
     14 F         -13.8334    3.3101   17.3640 F       1  UNL1       -0.2025
     15 C         -12.2785    1.2445   17.1080 C.ar    1  UNL1        0.1283
     16 N         -11.9979   -0.2084   17.3530 N.ar    1  UNL1       -0.2415
     17 N         -14.0849   -8.7665   19.0295 N.3     1  UNL1       -0.1841
     18 H         -13.4302   -9.3517   18.5105 H       1  UNL1        0.1484
     19 S         -15.4608   -9.1325   18.5577 S.O2    1  UNL1        0.0390
     20 O         -15.0042   -9.0136   17.1339 O.2     1  UNL1       -0.1576
     21 O         -15.9175   -9.2514   19.9815 O.2     1  UNL1       -0.1576
     22 C         -17.4192  -10.8355   18.4368 C.3     1  UNL1        0.0270
     23 C         -16.8369   -9.4985   18.0857 C.3     1  UNL1        0.1457
     24 C         -17.6305   -8.5276   17.2627 C.3     1  UNL1        0.0270
@<TRIPOS>BOND
     1    22    23    1
     2    23    24    1
     3    23    19    1
     4    19    20    2
     5    19    21    2
     6    19    17    1
     7     1    17    1
     8     1     2    1
     9     2     3    1
    10     3     4   ar
    11     4     5   ar
    12     5     6   ar
    13     6    10    1
    14    10    11   ar
    15    11    12   ar
    16    12    13   ar
    17    13    14    1
    18    13    15   ar
    19    15    16   ar
    20     6     7   ar
    21     7     8   ar
    22     8     9    1
    23     9     1    1
    24     8     3   ar
    25    16    10   ar
    26    17    18    1
