@<TRIPOS>MOLECULE
*****
 21 24 0 0 0
SMALL
GASTEIGER

@<TRIPOS>ATOM
      1 O          -7.2073  -18.0334   21.0066 O.2     1  UNL1       -0.2701
      2 C          -7.5956  -19.1374   21.9448 C.2     1  UNL1        0.2458
      3 N          -6.6631  -20.2898   22.1738 N.am    1  UNL1       -0.3011
      4 H          -6.8264  -21.0584   22.7670 H       1  UNL1        0.1497
      5 C          -8.9165  -19.0891   22.6542 C.ar    1  UNL1        0.0536
      6 C          -9.1814  -20.0083   23.8094 C.ar    1  UNL1        0.0076
      7 C         -10.5023  -19.9600   24.5188 C.ar    1  UNL1        0.0376
      8 C         -11.5581  -18.9923   24.0728 C.ar    1  UNL1        0.1455
      9 O         -12.9450  -18.7185   24.5744 O.2     1  UNL1       -0.4504
     10 C         -13.5371  -17.6300   23.7291 C.ar    1  UNL1        0.1796
     11 C         -12.5162  -17.2311   22.7050 C.ar    1  UNL1        0.0437
     12 C         -11.2931  -18.0730   22.9175 C.ar    1  UNL1        0.0378
     13 C          -9.9723  -18.1214   22.2082 C.ar    1  UNL1        0.0076
     14 C          -4.4763  -19.8860   20.6836 C.3     1  UNL1        0.0878
     15 C          -3.5622  -19.2422   21.4515 C.3     1  UNL1        0.0919
     16 N          -2.9760  -18.8519   21.8780 N.3     1  UNL1       -0.2713
     17 C          -2.6488  -19.2009   20.4564 C.3     1  UNL1        0.0722
     18 C          -3.6597  -19.9129   19.6072 C.3     1  UNL1        0.0191
     19 C          -4.9978  -20.2758   20.1797 C.3     1  UNL1        0.0221
     20 C          -5.3250  -19.9268   21.6013 C.3     1  UNL1        0.0191
     21 C          -4.3141  -19.2148   22.4506 C.3     1  UNL1        0.0722
@<TRIPOS>BOND
     1     1     2    2
     2     2     3   am
     3    14     3    1
     4    14    15    1
     5    15    16    1
     6    16    17    1
     7    17    18    1
     8    18    19    1
     9    19    20    1
    10    20    21    1
    11     2     5    1
    12     5     6   ar
    13     6     7   ar
    14     7     8   ar
    15     8     9   ar
    16     9    10   ar
    17    10    11   ar
    18    11    12   ar
    19    12    13   ar
    20    19    14    1
    21    13     5   ar
    22    21    16    1
    23    12     8   ar
    24     3     4    1
@<TRIPOS>MOLECULE
*****
 21 24 0 0 0
SMALL
GASTEIGER

@<TRIPOS>ATOM
      1 O          -8.7187  -17.2832   22.1398 O.2     1  UNL1       -0.2701
      2 C          -8.4322  -18.6952   21.7229 C.2     1  UNL1        0.2458
      3 N          -9.5588  -19.6714   21.5562 N.am    1  UNL1       -0.3011
      4 H          -9.4734  -20.6146   21.2874 H       1  UNL1        0.1497
      5 C          -7.0189  -19.1313   21.4726 C.ar    1  UNL1        0.0536
      6 C          -6.7358  -20.2323   20.4942 C.ar    1  UNL1        0.0076
      7 C          -5.3225  -20.6684   20.2439 C.ar    1  UNL1        0.0376
      8 C          -4.1924  -20.0033   20.9722 C.ar    1  UNL1        0.1455
      9 O          -2.7083  -20.2178   20.9323 O.2     1  UNL1       -0.4504
     10 C          -2.0743  -19.2493   21.8861 C.ar    1  UNL1        0.1796
     11 C          -3.1664  -18.4362   22.5156 C.ar    1  UNL1        0.0437
     12 C          -4.4755  -18.9023   21.9507 C.ar    1  UNL1        0.0378
     13 C          -5.8887  -18.4663   22.2009 C.ar    1  UNL1        0.0076
     14 C         -11.8430  -18.3939   22.1191 C.3     1  UNL1        0.0878
     15 C         -12.0506  -18.4820   23.4566 C.3     1  UNL1        0.0919
     16 N         -12.2192  -18.5090   24.2620 N.3     1  UNL1       -0.2713
     17 C         -13.2048  -17.7818   23.3963 C.3     1  UNL1        0.0722
     18 C         -12.9752  -17.6844   21.9172 C.3     1  UNL1        0.0191
     19 C         -11.7599  -18.3142   21.3038 C.3     1  UNL1        0.0221
     20 C         -10.7742  -19.0415   22.1696 C.3     1  UNL1        0.0191
     21 C         -11.0038  -19.1389   23.6488 C.3     1  UNL1        0.0722
@<TRIPOS>BOND
     1     1     2    2
     2     2     3   am
     3    14     3    1
     4    14    15    1
     5    15    16    1
     6    16    17    1
     7    17    18    1
     8    18    19    1
     9    19    20    1
    10    20    21    1
    11     2     5    1
    12     5     6   ar
    13     6     7   ar
    14     7     8   ar
    15     8     9   ar
    16     9    10   ar
    17    10    11   ar
    18    11    12   ar
    19    12    13   ar
    20    19    14    1
    21    13     5   ar
    22    21    16    1
    23    12     8   ar
    24     3     4    1
@<TRIPOS>MOLECULE
*****
 21 24 0 0 0
SMALL
GASTEIGER

@<TRIPOS>ATOM
      1 O          -6.6601  -20.8051   20.6874 O.2     1  UNL1       -0.2701
      2 C          -6.1509  -19.3982   20.7923 C.2     1  UNL1        0.2458
      3 N          -7.1181  -18.2544   20.8707 N.am    1  UNL1       -0.3011
      4 H          -6.8834  -17.3008   20.9412 H       1  UNL1        0.1497
      5 C          -4.6743  -19.1350   20.8188 C.ar    1  UNL1        0.0536
      6 C          -3.8932  -19.3695   22.0776 C.ar    1  UNL1        0.0076
      7 C          -2.4166  -19.1063   22.1042 C.ar    1  UNL1        0.0376
      8 C          -1.7214  -18.6085   20.8718 C.ar    1  UNL1        0.1455
      9 O          -0.2875  -18.2631   20.5987 O.2     1  UNL1       -0.4504
     10 C          -0.1825  -17.8151   19.1710 C.ar    1  UNL1        0.1796
     11 C          -1.5515  -17.8836   18.5618 C.ar    1  UNL1        0.0437
     12 C          -2.5026  -18.3740   19.6129 C.ar    1  UNL1        0.0378
     13 C          -3.9791  -18.6372   19.5865 C.ar    1  UNL1        0.0076
     14 C          -9.5952  -19.2654   20.7847 C.3     1  UNL1        0.0878
     15 C          -9.9608  -19.5800   22.0524 C.3     1  UNL1        0.0919
     16 N         -10.2270  -19.7869   22.8035 N.3     1  UNL1       -0.2713
     17 C         -11.1749  -20.0312   21.6671 C.3     1  UNL1        0.0722
     18 C         -10.7707  -19.6833   20.2652 C.3     1  UNL1        0.0191
     19 C          -9.4184  -19.0910   19.9997 C.3     1  UNL1        0.0221
     20 C          -8.4703  -18.8467   21.1361 C.3     1  UNL1        0.0191
     21 C          -8.8746  -19.1946   22.5382 C.3     1  UNL1        0.0722
@<TRIPOS>BOND
     1     1     2    2
     2     2     3   am
     3    14     3    1
     4    14    15    1
     5    15    16    1
     6    16    17    1
     7    17    18    1
     8    18    19    1
     9    19    20    1
    10    20    21    1
    11     2     5    1
    12     5     6   ar
    13     6     7   ar
    14     7     8   ar
    15     8     9   ar
    16     9    10   ar
    17    10    11   ar
    18    11    12   ar
    19    12    13   ar
    20    19    14    1
    21    13     5   ar
    22    21    16    1
    23    12     8   ar
    24     3     4    1
@<TRIPOS>MOLECULE
*****
 21 24 0 0 0
SMALL
GASTEIGER

@<TRIPOS>ATOM
      1 O          -8.8329  -19.4871   22.5078 O.2     1  UNL1       -0.2701
      2 C          -8.0619  -18.2008   22.4834 C.2     1  UNL1        0.2458
      3 N          -8.7902  -16.8895   22.4941 N.am    1  UNL1       -0.3011
      4 H          -8.3761  -15.9965   22.4800 H       1  UNL1        0.1497
      5 C          -6.5625  -18.2256   22.4484 C.ar    1  UNL1        0.0536
      6 C          -5.7763  -17.2986   23.3272 C.ar    1  UNL1        0.0076
      7 C          -4.2769  -17.3233   23.2922 C.ar    1  UNL1        0.0376
      8 C          -3.5637  -18.2752   22.3782 C.ar    1  UNL1        0.1455
      9 O          -2.1059  -18.5250   22.1287 O.2     1  UNL1       -0.4504
     10 C          -1.9911  -19.6064   21.0955 C.ar    1  UNL1        0.1796
     11 C          -3.3780  -20.0249   20.7065 C.ar    1  UNL1        0.0437
     12 C          -4.3500  -19.2022   21.4993 C.ar    1  UNL1        0.0378
     13 C          -5.8493  -19.1774   21.5344 C.ar    1  UNL1        0.0076
     14 C         -11.4157  -17.4082   22.5582 C.3     1  UNL1        0.0878
     15 C         -11.8593  -17.4703   21.2779 C.3     1  UNL1        0.0919
     16 N         -12.1747  -17.5174   20.5189 N.3     1  UNL1       -0.2713
     17 C         -13.1310  -17.7284   21.6550 C.3     1  UNL1        0.0722
     18 C         -12.6404  -17.6597   23.0709 C.3     1  UNL1        0.0191
     19 C         -11.1935  -17.3801   23.3505 C.3     1  UNL1        0.0221
     20 C         -10.2372  -17.1691   22.2144 C.3     1  UNL1        0.0191
     21 C         -10.7277  -17.2378   20.7985 C.3     1  UNL1        0.0722
@<TRIPOS>BOND
     1     1     2    2
     2     2     3   am
     3    14     3    1
     4    14    15    1
     5    15    16    1
     6    16    17    1
     7    17    18    1
     8    18    19    1
     9    19    20    1
    10    20    21    1
    11     2     5    1
    12     5     6   ar
    13     6     7   ar
    14     7     8   ar
    15     8     9   ar
    16     9    10   ar
    17    10    11   ar
    18    11    12   ar
    19    12    13   ar
    20    19    14    1
    21    13     5   ar
    22    21    16    1
    23    12     8   ar
    24     3     4    1
@<TRIPOS>MOLECULE
*****
 21 24 0 0 0
SMALL
GASTEIGER

@<TRIPOS>ATOM
      1 O         -13.5531   -6.5608   17.0181 O.2     1  UNL1       -0.2701
      2 C         -13.7317   -7.3602   18.2746 C.2     1  UNL1        0.2458
      3 N         -12.6221   -7.4330   19.2813 N.am    1  UNL1       -0.3011
      4 H         -12.6428   -7.9286   20.1317 H       1  UNL1        0.1497
      5 C         -15.0199   -8.0870   18.5244 C.ar    1  UNL1        0.0536
      6 C         -15.1915   -9.4968   18.0418 C.ar    1  UNL1        0.0076
      7 C         -16.4797  -10.2236   18.2917 C.ar    1  UNL1        0.0376
      8 C         -17.5963   -9.5404   19.0242 C.ar    1  UNL1        0.1455
      9 O         -18.9697  -10.0001   19.4145 O.2     1  UNL1       -0.4504
     10 C         -19.6470   -8.8743   20.1384 C.ar    1  UNL1        0.1796
     11 C         -18.6921   -7.7189   20.1955 C.ar    1  UNL1        0.0437
     12 C         -17.4246   -8.1306   19.5069 C.ar    1  UNL1        0.0378
     13 C         -16.1365   -7.4039   19.2570 C.ar    1  UNL1        0.0076
     14 C         -10.5759   -5.9762   18.3558 C.3     1  UNL1        0.0878
     15 C         -10.8247   -4.6754   18.6486 C.3     1  UNL1        0.0919
     16 N         -10.9320   -3.8741   18.8041 N.3     1  UNL1       -0.2713
     17 C          -9.6742   -4.2524   18.0799 C.3     1  UNL1        0.0722
     18 C          -9.3989   -5.6910   17.7561 C.3     1  UNL1        0.0191
     19 C         -10.3816   -6.7511   18.1565 C.3     1  UNL1        0.0221
     20 C         -11.6395   -6.3728   18.8808 C.3     1  UNL1        0.0191
     21 C         -11.9147   -4.9342   19.2046 C.3     1  UNL1        0.0722
@<TRIPOS>BOND
     1     1     2    2
     2     2     3   am
     3    14     3    1
     4    14    15    1
     5    15    16    1
     6    16    17    1
     7    17    18    1
     8    18    19    1
     9    19    20    1
    10    20    21    1
    11     2     5    1
    12     5     6   ar
    13     6     7   ar
    14     7     8   ar
    15     8     9   ar
    16     9    10   ar
    17    10    11   ar
    18    11    12   ar
    19    12    13   ar
    20    19    14    1
    21    13     5   ar
    22    21    16    1
    23    12     8   ar
    24     3     4    1
@<TRIPOS>MOLECULE
*****
 21 24 0 0 0
SMALL
GASTEIGER

@<TRIPOS>ATOM
      1 O         -16.8438   -6.3950   18.3924 O.2     1  UNL1       -0.2701
      2 C         -15.7113   -7.0233   19.1489 C.2     1  UNL1        0.2458
      3 N         -15.9173   -8.3270   19.8616 N.am    1  UNL1       -0.3011
      4 H         -15.2399   -8.8162   20.3821 H       1  UNL1        0.1497
      5 C         -14.3725   -6.3480   19.1927 C.ar    1  UNL1        0.0536
      6 C         -14.2723   -4.9070   19.5969 C.ar    1  UNL1        0.0076
      7 C         -12.9335   -4.2317   19.6408 C.ar    1  UNL1        0.0376
      8 C         -11.6951   -4.9976   19.2804 C.ar    1  UNL1        0.1455
      9 O         -10.2491   -4.6020   19.2315 O.2     1  UNL1       -0.4504
     10 C          -9.4556   -5.7985   18.7971 C.ar    1  UNL1        0.1796
     11 C         -10.4113   -6.9336   18.5775 C.ar    1  UNL1        0.0437
     12 C         -11.7954   -6.4386   18.8762 C.ar    1  UNL1        0.0378
     13 C         -13.1341   -7.1138   18.8324 C.ar    1  UNL1        0.0076
     14 C         -18.4535   -9.0873   19.4672 C.3     1  UNL1        0.0878
     15 C         -18.4857   -9.8729   18.3621 C.3     1  UNL1        0.0919
     16 N         -18.5550  -10.3545   17.6979 N.3     1  UNL1       -0.2713
     17 C         -19.8204  -10.0651   18.4494 C.3     1  UNL1        0.0722
     18 C         -19.7849   -9.1963   19.6716 C.3     1  UNL1        0.0191
     19 C         -18.4838   -8.6169   20.1424 C.3     1  UNL1        0.0221
     20 C         -17.2183   -8.9063   19.3909 C.3     1  UNL1        0.0191
     21 C         -17.2539   -9.7752   18.1685 C.3     1  UNL1        0.0722
@<TRIPOS>BOND
     1     1     2    2
     2     2     3   am
     3    14     3    1
     4    14    15    1
     5    15    16    1
     6    16    17    1
     7    17    18    1
     8    18    19    1
     9    19    20    1
    10    20    21    1
    11     2     5    1
    12     5     6   ar
    13     6     7   ar
    14     7     8   ar
    15     8     9   ar
    16     9    10   ar
    17    10    11   ar
    18    11    12   ar
    19    12    13   ar
    20    19    14    1
    21    13     5   ar
    22    21    16    1
    23    12     8   ar
    24     3     4    1
@<TRIPOS>MOLECULE
*****
 21 24 0 0 0
SMALL
GASTEIGER

@<TRIPOS>ATOM
      1 O         -12.1317   -3.1596   17.1401 O.2     1  UNL1       -0.2701
      2 C         -12.5156   -2.6718   18.5055 C.2     1  UNL1        0.2458
      3 N         -12.0259   -3.3945   19.7253 N.am    1  UNL1       -0.3011
      4 H         -12.2220   -3.1534   20.6594 H       1  UNL1        0.1497
      5 C         -13.3894   -1.4612   18.6513 C.ar    1  UNL1        0.0536
      6 C         -12.9568   -0.1493   18.0669 C.ar    1  UNL1        0.0076
      7 C         -13.8306    1.0613   18.2127 C.ar    1  UNL1        0.0376
      8 C         -15.1369    0.9597   18.9429 C.ar    1  UNL1        0.1455
      9 O         -16.2003    1.9741   19.2433 O.2     1  UNL1       -0.4504
     10 C         -17.2901    1.2890   20.0134 C.ar    1  UNL1        0.1796
     11 C         -16.9002   -0.1488   20.1889 C.ar    1  UNL1        0.0437
     12 C         -15.5695   -0.3523   19.5273 C.ar    1  UNL1        0.0378
     13 C         -14.6957   -1.5628   19.3815 C.ar    1  UNL1        0.0076
     14 C         -10.5243   -5.4558   18.9117 C.3     1  UNL1        0.0878
     15 C         -11.3423   -6.5236   18.7370 C.3     1  UNL1        0.0919
     16 N         -11.7983   -7.1985   18.6172 N.3     1  UNL1       -0.2713
     17 C         -10.3277   -7.3292   18.3529 C.3     1  UNL1        0.0722
     18 C          -9.4230   -6.1485   18.5461 C.3     1  UNL1        0.0191
     19 C          -9.9891   -4.8369   19.0035 C.3     1  UNL1        0.0221
     20 C         -11.4598   -4.7061   19.2678 C.3     1  UNL1        0.0191
     21 C         -12.3645   -5.8869   19.0747 C.3     1  UNL1        0.0722
@<TRIPOS>BOND
     1     1     2    2
     2     2     3   am
     3    14     3    1
     4    14    15    1
     5    15    16    1
     6    16    17    1
     7    17    18    1
     8    18    19    1
     9    19    20    1
    10    20    21    1
    11     2     5    1
    12     5     6   ar
    13     6     7   ar
    14     7     8   ar
    15     8     9   ar
    16     9    10   ar
    17    10    11   ar
    18    11    12   ar
    19    12    13   ar
    20    19    14    1
    21    13     5   ar
    22    21    16    1
    23    12     8   ar
    24     3     4    1
@<TRIPOS>MOLECULE
*****
 21 24 0 0 0
SMALL
GASTEIGER

@<TRIPOS>ATOM
      1 O         -16.3693   -6.6997   17.9566 O.2     1  UNL1       -0.2701
      2 C         -15.2633   -7.4288   18.6600 C.2     1  UNL1        0.2458
      3 N         -15.5877   -8.4941   19.6650 N.am    1  UNL1       -0.3011
      4 H         -14.9360   -9.0261   20.1764 H       1  UNL1        0.1497
      5 C         -13.8328   -7.0928   18.3586 C.ar    1  UNL1        0.0536
      6 C         -13.0270   -7.9822   17.4590 C.ar    1  UNL1        0.0076
      7 C         -11.5964   -7.6461   17.1575 C.ar    1  UNL1        0.0376
      8 C         -10.9719   -6.4206   17.7558 C.ar    1  UNL1        0.1455
      9 O          -9.5945   -5.8380   17.6408 O.2     1  UNL1       -0.4504
     10 C          -9.5491   -4.5885   18.4694 C.ar    1  UNL1        0.1796
     11 C         -10.8984   -4.3988   19.0965 C.ar    1  UNL1        0.0437
     12 C         -11.7778   -5.5311   18.6555 C.ar    1  UNL1        0.0378
     13 C         -13.2082   -5.8672   18.9569 C.ar    1  UNL1        0.0076
     14 C         -18.2527   -8.6923   19.8214 C.3     1  UNL1        0.0878
     15 C         -18.6602   -9.5794   18.8798 C.3     1  UNL1        0.0919
     16 N         -18.9551  -10.1101   18.3237 N.3     1  UNL1       -0.2713
     17 C         -19.9626   -9.4466   19.2150 C.3     1  UNL1        0.0722
     18 C         -19.5119   -8.4656   20.2563 C.3     1  UNL1        0.0191
     19 C         -18.0536   -8.1481   20.4064 C.3     1  UNL1        0.0221
     20 C         -17.0460   -8.8116   19.5150 C.3     1  UNL1        0.0191
     21 C         -17.4967   -9.7927   18.4736 C.3     1  UNL1        0.0722
@<TRIPOS>BOND
     1     1     2    2
     2     2     3   am
     3    14     3    1
     4    14    15    1
     5    15    16    1
     6    16    17    1
     7    17    18    1
     8    18    19    1
     9    19    20    1
    10    20    21    1
    11     2     5    1
    12     5     6   ar
    13     6     7   ar
    14     7     8   ar
    15     8     9   ar
    16     9    10   ar
    17    10    11   ar
    18    11    12   ar
    19    12    13   ar
    20    19    14    1
    21    13     5   ar
    22    21    16    1
    23    12     8   ar
    24     3     4    1
@<TRIPOS>MOLECULE
*****
 21 24 0 0 0
SMALL
GASTEIGER

@<TRIPOS>ATOM
      1 O         -15.6685   -7.2769   19.7842 O.2     1  UNL1       -0.2701
      2 C         -14.5859   -7.3118   18.7467 C.2     1  UNL1        0.2458
      3 N         -14.5979   -8.3718   17.6855 N.am    1  UNL1       -0.3011
      4 H         -13.9355   -8.4780   16.9649 H       1  UNL1        0.1497
      5 C         -13.4911   -6.2866   18.7703 C.ar    1  UNL1        0.0536
      6 C         -12.0562   -6.7203   18.7184 C.ar    1  UNL1        0.0076
      7 C         -10.9614   -5.6951   18.7420 C.ar    1  UNL1        0.0376
      8 C         -11.3017   -4.2361   18.8175 C.ar    1  UNL1        0.1455
      9 O         -10.4440   -3.0062   18.8558 O.2     1  UNL1       -0.4504
     10 C         -11.3489   -1.8123   18.9314 C.ar    1  UNL1        0.1796
     11 C         -12.7659   -2.3044   18.9398 C.ar    1  UNL1        0.0437
     12 C         -12.7367   -3.8024   18.8694 C.ar    1  UNL1        0.0378
     13 C         -13.8314   -4.8276   18.8458 C.ar    1  UNL1        0.0076
     14 C         -16.7396   -9.9237   18.0983 C.3     1  UNL1        0.0878
     15 C         -17.8150   -9.3033   17.5522 C.3     1  UNL1        0.0919
     16 N         -18.4960   -8.9655   17.2360 N.3     1  UNL1       -0.2713
     17 C         -18.6612  -10.2916   17.9172 C.3     1  UNL1        0.0722
     18 C         -17.4719  -10.9778   18.5212 C.3     1  UNL1        0.0191
     19 C         -16.1175  -10.3379   18.4439 C.3     1  UNL1        0.0221
     20 C         -15.9523   -9.0117   17.7627 C.3     1  UNL1        0.0191
     21 C         -17.1416   -8.3255   17.1587 C.3     1  UNL1        0.0722
@<TRIPOS>BOND
     1     1     2    2
     2     2     3   am
     3    14     3    1
     4    14    15    1
     5    15    16    1
     6    16    17    1
     7    17    18    1
     8    18    19    1
     9    19    20    1
    10    20    21    1
    11     2     5    1
    12     5     6   ar
    13     6     7   ar
    14     7     8   ar
    15     8     9   ar
    16     9    10   ar
    17    10    11   ar
    18    11    12   ar
    19    12    13   ar
    20    19    14    1
    21    13     5   ar
    22    21    16    1
    23    12     8   ar
    24     3     4    1
