@<TRIPOS>MOLECULE
*****
 27 30 0 0 0
SMALL
GASTEIGER

@<TRIPOS>ATOM
      1 C          -8.6087  -19.2723   23.0667 C.ar    1  UNL1        0.0799
      2 C          -7.5651  -19.7148   22.0843 C.ar    1  UNL1        0.0219
      3 C          -6.3226  -18.8972   21.8909 C.ar    1  UNL1        0.0534
      4 C          -6.1235  -17.6371   22.6799 C.ar    1  UNL1        0.0842
      5 N          -7.1671  -17.1946   23.6623 N.ar    1  UNL1       -0.2918
      6 C          -7.2468  -16.0071   24.5752 C.ar    1  UNL1        0.0567
      7 C          -6.2157  -14.9258   24.7073 C.3     1  UNL1        0.0517
      8 C          -8.5387  -16.0908   25.3329 C.ar    1  UNL1        0.0730
      9 C          -9.0263  -15.1077   26.3556 C.3     1  UNL1        0.0534
     10 N          -9.2574  -17.3300   24.8882 N.ar    1  UNL1       -0.2299
     11 C          -8.4097  -18.0122   23.8557 C.ar    1  UNL1        0.1603
     12 C          -5.2789  -19.3397   20.9085 C.ar    1  UNL1        0.1469
     13 C          -5.0946  -20.7336   20.3859 C.ar    1  UNL1        0.0408
     14 C          -3.9382  -20.7213   19.4306 C.ar    1  UNL1        0.0438
     15 C          -3.4077  -19.3198   19.3629 C.ar    1  UNL1        0.1796
     16 O          -4.2364  -18.4660   20.2763 O.2     1  UNL1       -0.4504
     17 N          -9.8514  -20.0899   23.2602 N.pl3   1  UNL1       -0.3267
     18 H          -9.9549  -20.6449   24.0667 H       1  UNL1        0.1472
     19 C         -10.9363  -20.0619   22.2247 C.3     1  UNL1        0.1137
     20 C         -10.0042  -19.4435   19.4411 C.3     1  UNL1        0.0307
     21 C         -10.8544  -18.4560   20.1841 C.ar    1  UNL1       -0.0245
     22 C         -11.2386  -17.1593   19.5352 C.ar    1  UNL1       -0.0045
     23 C         -12.0888  -16.1719   20.2782 C.ar    1  UNL1       -0.0007
     24 C         -12.5549  -16.4811   21.6700 C.ar    1  UNL1       -0.0045
     25 C         -12.1707  -17.7777   22.3188 C.ar    1  UNL1       -0.0245
     26 C         -12.6368  -18.0869   23.7107 C.3     1  UNL1        0.0307
     27 C         -11.3205  -18.7652   21.5759 C.ar    1  UNL1       -0.0105
@<TRIPOS>BOND
     1    20    21    1
     2    21    22   ar
     3    22    23   ar
     4    23    24   ar
     5    24    25   ar
     6    25    26    1
     7    25    27   ar
     8    27    19    1
     9    19    17    1
    10    17     1    1
    11     1     2   ar
    12     2     3   ar
    13     3    12    1
    14    12    13   ar
    15    13    14   ar
    16    14    15   ar
    17    15    16   ar
    18     3     4   ar
    19     4     5   ar
    20     5     6   ar
    21     6     7    1
    22     6     8   ar
    23     8     9    1
    24     8    10   ar
    25    10    11   ar
    26    27    21   ar
    27    11     1   ar
    28    16    12   ar
    29    11     5   ar
    30    17    18    1
@<TRIPOS>MOLECULE
*****
 27 30 0 0 0
SMALL
GASTEIGER

@<TRIPOS>ATOM
      1 C          -7.6176  -17.8595   21.7764 C.ar    1  UNL1        0.0799
      2 C          -7.8917  -17.1488   23.0685 C.ar    1  UNL1        0.0219
      3 C          -6.7647  -16.8424   24.0097 C.ar    1  UNL1        0.0534
      4 C          -5.3635  -17.2468   23.6587 C.ar    1  UNL1        0.0842
      5 N          -5.0894  -17.9575   22.3665 N.ar    1  UNL1       -0.2918
      6 C          -3.8212  -18.4751   21.7551 C.ar    1  UNL1        0.0567
      7 C          -2.4504  -18.3826   22.3571 C.3     1  UNL1        0.0517
      8 C          -4.1645  -19.1014   20.4360 C.ar    1  UNL1        0.0730
      9 C          -3.1972  -19.7452   19.4873 C.3     1  UNL1        0.0534
     10 N          -5.6448  -18.9708   20.2322 N.ar    1  UNL1       -0.2299
     11 C          -6.2164  -18.2638   21.4254 C.ar    1  UNL1        0.1603
     12 C          -7.0388  -16.1317   25.3019 C.ar    1  UNL1        0.1469
     13 C          -8.3724  -16.0156   25.9787 C.ar    1  UNL1        0.0408
     14 C          -8.1852  -15.2244   27.2392 C.ar    1  UNL1        0.0438
     15 C          -6.7358  -14.8515   27.3415 C.ar    1  UNL1        0.1796
     16 O          -6.0273  -15.4122   26.1442 O.2     1  UNL1       -0.4504
     17 N          -8.7447  -18.1659   20.8351 N.pl3   1  UNL1       -0.3267
     18 H          -8.8114  -17.6903   19.9757 H       1  UNL1        0.1472
     19 C          -9.7701  -19.1969   21.2033 C.3     1  UNL1        0.1137
     20 C          -9.6148  -20.3492   23.9689 C.3     1  UNL1        0.0307
     21 C         -10.7541  -19.4482   23.5947 C.ar    1  UNL1       -0.0245
     22 C         -11.8158  -19.1232   24.6033 C.ar    1  UNL1       -0.0045
     23 C         -12.9551  -18.2221   24.2291 C.ar    1  UNL1       -0.0007
     24 C         -13.0327  -17.6460   22.8464 C.ar    1  UNL1       -0.0045
     25 C         -11.9711  -17.9709   21.8378 C.ar    1  UNL1       -0.0245
     26 C         -12.0487  -17.3947   20.4550 C.3     1  UNL1        0.0307
     27 C         -10.8317  -18.8720   22.2119 C.ar    1  UNL1       -0.0105
@<TRIPOS>BOND
     1    20    21    1
     2    21    22   ar
     3    22    23   ar
     4    23    24   ar
     5    24    25   ar
     6    25    26    1
     7    25    27   ar
     8    27    19    1
     9    19    17    1
    10    17     1    1
    11     1     2   ar
    12     2     3   ar
    13     3    12    1
    14    12    13   ar
    15    13    14   ar
    16    14    15   ar
    17    15    16   ar
    18     3     4   ar
    19     4     5   ar
    20     5     6   ar
    21     6     7    1
    22     6     8   ar
    23     8     9    1
    24     8    10   ar
    25    10    11   ar
    26    27    21   ar
    27    11     1   ar
    28    16    12   ar
    29    11     5   ar
    30    17    18    1
@<TRIPOS>MOLECULE
*****
 27 30 0 0 0
SMALL
GASTEIGER

@<TRIPOS>ATOM
      1 C          -7.3836  -17.9347   21.9002 C.ar    1  UNL1        0.0799
      2 C          -7.7329  -17.2183   23.1708 C.ar    1  UNL1        0.0219
      3 C          -6.6485  -16.8044   24.1209 C.ar    1  UNL1        0.0534
      4 C          -5.2147  -17.1068   23.8003 C.ar    1  UNL1        0.0842
      5 N          -4.8654  -17.8232   22.5296 N.ar    1  UNL1       -0.2918
      6 C          -3.5512  -18.2547   21.9494 C.ar    1  UNL1        0.0567
      7 C          -2.2017  -18.0428   22.5690 C.3     1  UNL1        0.0517
      8 C          -3.8234  -18.9354   20.6407 C.ar    1  UNL1        0.0730
      9 C          -2.7938  -19.5236   19.7219 C.3     1  UNL1        0.0534
     10 N          -5.3058  -18.9245   20.4121 N.ar    1  UNL1       -0.2299
     11 C          -5.9498  -18.2371   21.5795 C.ar    1  UNL1        0.1603
     12 C          -6.9978  -16.0880   25.3917 C.ar    1  UNL1        0.1469
     13 C          -8.3699  -15.9627   25.9846 C.ar    1  UNL1        0.0408
     14 C          -8.2565  -15.1684   27.2520 C.ar    1  UNL1        0.0438
     15 C          -6.8142  -14.8027   27.4423 C.ar    1  UNL1        0.1796
     16 O          -6.0363  -15.3710   26.2926 O.2     1  UNL1       -0.4504
     17 N          -8.4680  -18.3486   20.9500 N.pl3   1  UNL1       -0.3267
     18 H          -8.4999  -17.9670   20.0430 H       1  UNL1        0.1472
     19 C          -9.5037  -19.3440   21.3818 C.3     1  UNL1        0.1137
     20 C         -11.5729  -17.6317   20.0452 C.3     1  UNL1        0.0307
     21 C         -11.7435  -18.0312   21.4808 C.ar    1  UNL1       -0.0245
     22 C         -12.9487  -17.5745   22.2483 C.ar    1  UNL1       -0.0045
     23 C         -13.1193  -17.9740   23.6840 C.ar    1  UNL1       -0.0007
     24 C         -12.0848  -18.8301   24.3523 C.ar    1  UNL1       -0.0045
     25 C         -10.8796  -19.2868   23.5849 C.ar    1  UNL1       -0.0245
     26 C          -9.8450  -20.1430   24.2533 C.3     1  UNL1        0.0307
     27 C         -10.7089  -18.8874   22.1492 C.ar    1  UNL1       -0.0105
@<TRIPOS>BOND
     1    20    21    1
     2    21    22   ar
     3    22    23   ar
     4    23    24   ar
     5    24    25   ar
     6    25    26    1
     7    25    27   ar
     8    27    19    1
     9    19    17    1
    10    17     1    1
    11     1     2   ar
    12     2     3   ar
    13     3    12    1
    14    12    13   ar
    15    13    14   ar
    16    14    15   ar
    17    15    16   ar
    18     3     4   ar
    19     4     5   ar
    20     5     6   ar
    21     6     7    1
    22     6     8   ar
    23     8     9    1
    24     8    10   ar
    25    10    11   ar
    26    27    21   ar
    27    11     1   ar
    28    16    12   ar
    29    11     5   ar
    30    17    18    1
@<TRIPOS>MOLECULE
*****
 27 30 0 0 0
SMALL
GASTEIGER

@<TRIPOS>ATOM
      1 C          -7.3389  -18.0968   21.8547 C.ar    1  UNL1        0.0799
      2 C          -6.0147  -18.4954   21.2736 C.ar    1  UNL1        0.0219
      3 C          -4.7424  -18.0422   21.9261 C.ar    1  UNL1        0.0534
      4 C          -4.7943  -17.1903   23.1596 C.ar    1  UNL1        0.0842
      5 N          -6.1184  -16.7917   23.7407 N.ar    1  UNL1       -0.2918
      6 C          -6.4809  -15.9650   24.9387 C.ar    1  UNL1        0.0567
      7 C          -5.5163  -15.3109   25.8830 C.3     1  UNL1        0.0517
      8 C          -7.9772  -15.9073   25.0266 C.ar    1  UNL1        0.0730
      9 C          -8.7717  -15.1853   26.0743 C.3     1  UNL1        0.0534
     10 N          -8.5396  -16.6984   23.8830 N.ar    1  UNL1       -0.2299
     11 C          -7.3907  -17.2450   23.0882 C.ar    1  UNL1        0.1603
     12 C          -3.4182  -18.4408   21.3450 C.ar    1  UNL1        0.1469
     13 C          -2.6868  -19.7223   21.6148 C.ar    1  UNL1        0.0408
     14 C          -1.4095  -19.7014   20.8287 C.ar    1  UNL1        0.0438
     15 C          -1.3514  -18.4069   20.0730 C.ar    1  UNL1        0.1796
     16 O          -2.5929  -17.6278   20.3921 O.2     1  UNL1       -0.4504
     17 N          -8.6113  -18.5501   21.2022 N.pl3   1  UNL1       -0.3267
     18 H          -8.8342  -18.2448   20.2931 H       1  UNL1        0.1472
     19 C          -9.5440  -19.4684   21.9348 C.3     1  UNL1        0.1137
     20 C         -11.4708  -18.0429   20.1305 C.3     1  UNL1        0.0307
     21 C         -11.8002  -18.2295   21.5819 C.ar    1  UNL1       -0.0245
     22 C         -13.0930  -17.7033   22.1313 C.ar    1  UNL1       -0.0045
     23 C         -13.4225  -17.8899   23.5827 C.ar    1  UNL1       -0.0007
     24 C         -12.4591  -18.6027   24.4848 C.ar    1  UNL1       -0.0045
     25 C         -11.1663  -19.1289   23.9355 C.ar    1  UNL1       -0.0245
     26 C         -10.2029  -19.8416   24.8376 C.3     1  UNL1        0.0307
     27 C         -10.8368  -18.9423   22.4840 C.ar    1  UNL1       -0.0105
@<TRIPOS>BOND
     1    20    21    1
     2    21    22   ar
     3    22    23   ar
     4    23    24   ar
     5    24    25   ar
     6    25    26    1
     7    25    27   ar
     8    27    19    1
     9    19    17    1
    10    17     1    1
    11     1     2   ar
    12     2     3   ar
    13     3    12    1
    14    12    13   ar
    15    13    14   ar
    16    14    15   ar
    17    15    16   ar
    18     3     4   ar
    19     4     5   ar
    20     5     6   ar
    21     6     7    1
    22     6     8   ar
    23     8     9    1
    24     8    10   ar
    25    10    11   ar
    26    27    21   ar
    27    11     1   ar
    28    16    12   ar
    29    11     5   ar
    30    17    18    1
@<TRIPOS>MOLECULE
*****
 27 30 0 0 0
SMALL
GASTEIGER

@<TRIPOS>ATOM
      1 C          -7.3039  -18.1584   21.9071 C.ar    1  UNL1        0.0799
      2 C          -5.9787  -18.5499   21.3235 C.ar    1  UNL1        0.0219
      3 C          -4.7081  -18.0623   21.9542 C.ar    1  UNL1        0.0534
      4 C          -4.7627  -17.1831   23.1683 C.ar    1  UNL1        0.0842
      5 N          -6.0879  -16.7916   23.7518 N.ar    1  UNL1       -0.2918
      6 C          -6.4529  -15.9432   24.9337 C.ar    1  UNL1        0.0567
      7 C          -5.4906  -15.2528   25.8542 C.3     1  UNL1        0.0517
      8 C          -7.9492  -15.9065   25.0336 C.ar    1  UNL1        0.0730
      9 C          -8.7458  -15.1728   26.0715 C.3     1  UNL1        0.0534
     10 N          -8.5089  -16.7322   23.9134 N.ar    1  UNL1       -0.2299
     11 C          -7.3585  -17.2792   23.1212 C.ar    1  UNL1        0.1603
     12 C          -3.3828  -18.4538   21.3707 C.ar    1  UNL1        0.1469
     13 C          -2.6588  -19.7446   21.6147 C.ar    1  UNL1        0.0408
     14 C          -1.3775  -19.7118   20.8355 C.ar    1  UNL1        0.0438
     15 C          -1.3096  -18.4006   20.1100 C.ar    1  UNL1        0.1796
     16 O          -2.5490  -17.6232   20.4407 O.2     1  UNL1       -0.4504
     17 N          -8.5746  -18.6460   21.2764 N.pl3   1  UNL1       -0.3267
     18 H          -8.7990  -18.3833   20.3545 H       1  UNL1        0.1472
     19 C          -9.5034  -19.5339   22.0504 C.3     1  UNL1        0.1137
     20 C         -10.2158  -19.7984   24.9526 C.3     1  UNL1        0.0307
     21 C         -11.1659  -19.1277   24.0052 C.ar    1  UNL1       -0.0245
     22 C         -12.4722  -18.5893   24.5088 C.ar    1  UNL1       -0.0045
     23 C         -13.4223  -17.9186   23.5614 C.ar    1  UNL1       -0.0007
     24 C         -13.0660  -17.7864   22.1104 C.ar    1  UNL1       -0.0045
     25 C         -11.7598  -18.3248   21.6067 C.ar    1  UNL1       -0.0245
     26 C         -11.4035  -18.1925   20.1556 C.3     1  UNL1        0.0307
     27 C         -10.8096  -18.9955   22.5541 C.ar    1  UNL1       -0.0105
@<TRIPOS>BOND
     1    20    21    1
     2    21    22   ar
     3    22    23   ar
     4    23    24   ar
     5    24    25   ar
     6    25    26    1
     7    25    27   ar
     8    27    19    1
     9    19    17    1
    10    17     1    1
    11     1     2   ar
    12     2     3   ar
    13     3    12    1
    14    12    13   ar
    15    13    14   ar
    16    14    15   ar
    17    15    16   ar
    18     3     4   ar
    19     4     5   ar
    20     5     6   ar
    21     6     7    1
    22     6     8   ar
    23     8     9    1
    24     8    10   ar
    25    10    11   ar
    26    27    21   ar
    27    11     1   ar
    28    16    12   ar
    29    11     5   ar
    30    17    18    1
@<TRIPOS>MOLECULE
*****
 27 30 0 0 0
SMALL
GASTEIGER

@<TRIPOS>ATOM
      1 C          -7.1519  -18.0569   22.1403 C.ar    1  UNL1        0.0799
      2 C          -7.9117  -18.8371   21.1087 C.ar    1  UNL1        0.0219
      3 C          -7.1796  -19.7460   20.1664 C.ar    1  UNL1        0.0534
      4 C          -5.6879  -19.8748   20.2557 C.ar    1  UNL1        0.0842
      5 N          -4.9281  -19.0947   21.2872 N.ar    1  UNL1       -0.2918
      6 C          -3.4656  -19.0179   21.6115 C.ar    1  UNL1        0.0567
      7 C          -2.3677  -19.7661   20.9153 C.3     1  UNL1        0.0517
      8 C          -3.2937  -18.0615   22.7542 C.ar    1  UNL1        0.0730
      9 C          -1.9937  -17.6854   23.4014 C.3     1  UNL1        0.0534
     10 N          -4.6500  -17.5472   23.1362 N.ar    1  UNL1       -0.2299
     11 C          -5.6601  -18.1857   22.2295 C.ar    1  UNL1        0.1603
     12 C          -7.9394  -20.5262   19.1348 C.ar    1  UNL1        0.1469
     13 C          -9.1845  -20.0764   18.4296 C.ar    1  UNL1        0.0408
     14 C          -9.6020  -21.1653   17.4863 C.ar    1  UNL1        0.0438
     15 C          -8.6149  -22.2882   17.6085 C.ar    1  UNL1        0.1796
     16 O          -7.5874  -21.8931   18.6273 O.2     1  UNL1       -0.4504
     17 N          -7.8839  -17.1480   23.0826 N.pl3   1  UNL1       -0.3267
     18 H          -7.5785  -17.0551   24.0139 H       1  UNL1        0.1472
     19 C          -9.0813  -16.3804   22.6060 C.3     1  UNL1        0.1137
     20 C          -9.8035  -17.9932   25.0303 C.3     1  UNL1        0.0307
     21 C         -10.8132  -17.7832   23.9411 C.ar    1  UNL1       -0.0245
     22 C         -12.1841  -18.3796   24.0640 C.ar    1  UNL1       -0.0045
     23 C         -13.1938  -18.1696   22.9749 C.ar    1  UNL1       -0.0007
     24 C         -12.8327  -17.3632   21.7627 C.ar    1  UNL1       -0.0045
     25 C         -11.4619  -16.7668   21.6397 C.ar    1  UNL1       -0.0245
     26 C         -11.1008  -15.9604   20.4276 C.3     1  UNL1        0.0307
     27 C         -10.4521  -16.9768   22.7289 C.ar    1  UNL1       -0.0105
@<TRIPOS>BOND
     1    20    21    1
     2    21    22   ar
     3    22    23   ar
     4    23    24   ar
     5    24    25   ar
     6    25    26    1
     7    25    27   ar
     8    27    19    1
     9    19    17    1
    10    17     1    1
    11     1     2   ar
    12     2     3   ar
    13     3    12    1
    14    12    13   ar
    15    13    14   ar
    16    14    15   ar
    17    15    16   ar
    18     3     4   ar
    19     4     5   ar
    20     5     6   ar
    21     6     7    1
    22     6     8   ar
    23     8     9    1
    24     8    10   ar
    25    10    11   ar
    26    27    21   ar
    27    11     1   ar
    28    16    12   ar
    29    11     5   ar
    30    17    18    1
@<TRIPOS>MOLECULE
*****
 27 30 0 0 0
SMALL
GASTEIGER

@<TRIPOS>ATOM
      1 C          -7.5636  -17.5009   22.6515 C.ar    1  UNL1        0.0799
      2 C          -9.0064  -17.8218   22.3962 C.ar    1  UNL1        0.0219
      3 C         -10.0581  -17.3706   23.3659 C.ar    1  UNL1        0.0534
      4 C          -9.6669  -16.5985   24.5909 C.ar    1  UNL1        0.0842
      5 N          -8.2241  -16.2775   24.8463 N.ar    1  UNL1       -0.2918
      6 C          -7.5421  -15.5379   25.9588 C.ar    1  UNL1        0.0567
      7 C          -8.2151  -14.9137   27.1452 C.3     1  UNL1        0.0517
      8 C          -6.0688  -15.5319   25.6767 C.ar    1  UNL1        0.0730
      9 C          -5.0100  -14.9008   26.5315 C.3     1  UNL1        0.0534
     10 N          -5.8404  -16.2679   24.3898 N.ar    1  UNL1       -0.2299
     11 C          -7.1725  -16.7287   23.8766 C.ar    1  UNL1        0.1603
     12 C         -11.5010  -17.6916   23.1105 C.ar    1  UNL1        0.1469
     13 C         -12.1673  -17.7488   21.7679 C.ar    1  UNL1        0.0408
     14 C         -13.6089  -18.1043   21.9806 C.ar    1  UNL1        0.0438
     15 C         -13.8336  -18.2668   23.4548 C.ar    1  UNL1        0.1796
     16 O         -12.5308  -18.0117   24.1531 O.2     1  UNL1       -0.4504
     17 N          -6.5118  -17.9521   21.6818 N.pl3   1  UNL1       -0.3267
     18 H          -6.5895  -17.7201   20.7282 H       1  UNL1        0.1472
     19 C          -5.3418  -18.7568   22.1651 C.3     1  UNL1        0.1137
     20 C          -4.9576  -20.6390   19.8608 C.3     1  UNL1        0.0307
     21 C          -3.8628  -19.6874   20.2425 C.ar    1  UNL1       -0.0245
     22 C          -2.5757  -19.6769   19.4721 C.ar    1  UNL1       -0.0045
     23 C          -1.4809  -18.7253   19.8538 C.ar    1  UNL1       -0.0007
     24 C          -1.6730  -17.7842   21.0060 C.ar    1  UNL1       -0.0045
     25 C          -2.9599  -17.7947   21.7764 C.ar    1  UNL1       -0.0245
     26 C          -3.1520  -16.8536   22.9285 C.3     1  UNL1        0.0307
     27 C          -4.0549  -18.7463   21.3947 C.ar    1  UNL1       -0.0105
@<TRIPOS>BOND
     1    20    21    1
     2    21    22   ar
     3    22    23   ar
     4    23    24   ar
     5    24    25   ar
     6    25    26    1
     7    25    27   ar
     8    27    19    1
     9    19    17    1
    10    17     1    1
    11     1     2   ar
    12     2     3   ar
    13     3    12    1
    14    12    13   ar
    15    13    14   ar
    16    14    15   ar
    17    15    16   ar
    18     3     4   ar
    19     4     5   ar
    20     5     6   ar
    21     6     7    1
    22     6     8   ar
    23     8     9    1
    24     8    10   ar
    25    10    11   ar
    26    27    21   ar
    27    11     1   ar
    28    16    12   ar
    29    11     5   ar
    30    17    18    1
@<TRIPOS>MOLECULE
*****
 27 30 0 0 0
SMALL
GASTEIGER

@<TRIPOS>ATOM
      1 C          -6.1269  -16.4444   23.6698 C.ar    1  UNL1        0.0799
      2 C          -7.1545  -17.2352   22.9158 C.ar    1  UNL1        0.0219
      3 C          -8.5430  -17.3772   23.4652 C.ar    1  UNL1        0.0534
      4 C          -8.9039  -16.7283   24.7686 C.ar    1  UNL1        0.0842
      5 N          -7.8763  -15.9374   25.5225 N.ar    1  UNL1       -0.2918
      6 C          -7.9392  -15.1908   26.8219 C.ar    1  UNL1        0.0567
      7 C          -9.1409  -15.0689   27.7114 C.3     1  UNL1        0.0517
      8 C          -6.5896  -14.5873   27.0757 C.ar    1  UNL1        0.0730
      9 C          -6.2047  -13.7560   28.2635 C.3     1  UNL1        0.0534
     10 N          -5.6925  -14.9610   25.9331 N.ar    1  UNL1       -0.2299
     11 C          -6.4878  -15.7955   24.9732 C.ar    1  UNL1        0.1603
     12 C          -9.5707  -18.1681   22.7112 C.ar    1  UNL1        0.1469
     13 C          -9.8068  -19.6448   22.8278 C.ar    1  UNL1        0.0408
     14 C         -10.9247  -20.0104   21.8970 C.ar    1  UNL1        0.0438
     15 C         -11.3796  -18.7596   21.2050 C.ar    1  UNL1        0.1796
     16 O         -10.5428  -17.6211   21.7083 O.2     1  UNL1       -0.4504
     17 N          -4.7383  -16.3024   23.1205 N.pl3   1  UNL1       -0.3267
     18 H          -4.4233  -15.4269   22.7987 H       1  UNL1        0.1472
     19 C          -3.8296  -17.4944   23.0613 C.3     1  UNL1        0.1137
     20 C          -5.3116  -19.9067   22.0692 C.3     1  UNL1        0.0307
     21 C          -4.2145  -19.3072   21.2405 C.ar    1  UNL1       -0.0245
     22 C          -3.8583  -19.9138   19.9156 C.ar    1  UNL1       -0.0045
     23 C          -2.7612  -19.3142   19.0869 C.ar    1  UNL1       -0.0007
     24 C          -2.0203  -18.1080   19.5829 C.ar    1  UNL1       -0.0045
     25 C          -2.3764  -17.5014   20.9077 C.ar    1  UNL1       -0.0245
     26 C          -1.6354  -16.2952   21.4038 C.3     1  UNL1        0.0307
     27 C          -3.4735  -18.1010   21.7365 C.ar    1  UNL1       -0.0105
@<TRIPOS>BOND
     1    20    21    1
     2    21    22   ar
     3    22    23   ar
     4    23    24   ar
     5    24    25   ar
     6    25    26    1
     7    25    27   ar
     8    27    19    1
     9    19    17    1
    10    17     1    1
    11     1     2   ar
    12     2     3   ar
    13     3    12    1
    14    12    13   ar
    15    13    14   ar
    16    14    15   ar
    17    15    16   ar
    18     3     4   ar
    19     4     5   ar
    20     5     6   ar
    21     6     7    1
    22     6     8   ar
    23     8     9    1
    24     8    10   ar
    25    10    11   ar
    26    27    21   ar
    27    11     1   ar
    28    16    12   ar
    29    11     5   ar
    30    17    18    1
@<TRIPOS>MOLECULE
*****
 27 30 0 0 0
SMALL
GASTEIGER

@<TRIPOS>ATOM
      1 C          -6.8935  -17.4631   22.3876 C.ar    1  UNL1        0.0799
      2 C          -8.3774  -17.3233   22.5561 C.ar    1  UNL1        0.0219
      3 C          -9.3027  -18.3016   21.8954 C.ar    1  UNL1        0.0534
      4 C          -8.7442  -19.4198   21.0662 C.ar    1  UNL1        0.0842
      5 N          -7.2603  -19.5597   20.8977 N.ar    1  UNL1       -0.2918
      6 C          -6.4247  -20.5529   20.1457 C.ar    1  UNL1        0.0567
      7 C          -6.9404  -21.7078   19.3394 C.3     1  UNL1        0.0517
      8 C          -4.9829  -20.1883   20.3416 C.ar    1  UNL1        0.0730
      9 C          -3.8037  -20.9147   19.7655 C.3     1  UNL1        0.0534
     10 N          -4.9274  -18.9698   21.2147 N.ar    1  UNL1       -0.2299
     11 C          -6.3349  -18.5814   21.5584 C.ar    1  UNL1        0.1603
     12 C         -10.7867  -18.1617   22.0639 C.ar    1  UNL1        0.1469
     13 C         -11.5343  -18.2033   23.3637 C.ar    1  UNL1        0.0408
     14 C         -12.9932  -18.0230   23.0653 C.ar    1  UNL1        0.0438
     15 C         -13.1473  -17.8700   21.5811 C.ar    1  UNL1        0.1796
     16 O         -11.7836  -17.9558   20.9622 O.2     1  UNL1       -0.4504
     17 N          -5.9681  -16.4848   23.0482 N.pl3   1  UNL1       -0.3267
     18 H          -4.9951  -16.6331   23.0228 H       1  UNL1        0.1472
     19 C          -6.5251  -15.2804   23.7477 C.3     1  UNL1        0.1137
     20 C          -9.4646  -15.2199   24.3437 C.3     1  UNL1        0.0307
     21 C          -8.4753  -15.3610   25.4623 C.ar    1  UNL1       -0.0245
     22 C          -8.9558  -15.4719   26.8790 C.ar    1  UNL1       -0.0045
     23 C          -7.9665  -15.6130   27.9976 C.ar    1  UNL1       -0.0007
     24 C          -6.4967  -15.6433   27.6996 C.ar    1  UNL1       -0.0045
     25 C          -6.0162  -15.5324   26.2830 C.ar    1  UNL1       -0.0245
     26 C          -4.5465  -15.5626   25.9850 C.3     1  UNL1        0.0307
     27 C          -7.0056  -15.3913   25.1643 C.ar    1  UNL1       -0.0105
@<TRIPOS>BOND
     1    20    21    1
     2    21    22   ar
     3    22    23   ar
     4    23    24   ar
     5    24    25   ar
     6    25    26    1
     7    25    27   ar
     8    27    19    1
     9    19    17    1
    10    17     1    1
    11     1     2   ar
    12     2     3   ar
    13     3    12    1
    14    12    13   ar
    15    13    14   ar
    16    14    15   ar
    17    15    16   ar
    18     3     4   ar
    19     4     5   ar
    20     5     6   ar
    21     6     7    1
    22     6     8   ar
    23     8     9    1
    24     8    10   ar
    25    10    11   ar
    26    27    21   ar
    27    11     1   ar
    28    16    12   ar
    29    11     5   ar
    30    17    18    1
