@<TRIPOS>MOLECULE
*****
 33 36 0 0 0
SMALL
GASTEIGER

@<TRIPOS>ATOM
      1 C           7.1124   -5.0622   29.4435 C.ar    1  UNL1        0.0537
      2 C           8.1059   -6.0377   30.0014 C.ar    1  UNL1        0.0042
      3 C           8.5708   -7.1945   29.1672 C.ar    1  UNL1       -0.0025
      4 C           8.0422   -7.3757   27.7753 C.ar    1  UNL1       -0.0026
      5 C           7.0486   -6.4001   27.2174 C.ar    1  UNL1       -0.0025
      6 C           6.5837   -5.2434   28.0515 C.ar    1  UNL1        0.0042
      7 N           6.5401   -4.0499   31.7668 N.am    1  UNL1       -0.2794
      8 C           6.6475   -3.9054   30.2777 C.2     1  UNL1        0.2495
      9 O           6.2900   -2.6042   29.6227 O.2     1  UNL1       -0.2698
     10 H           6.7748   -4.9039   32.1967 H       1  UNL1        0.1552
     11 N           8.4538   -1.8543   32.4861 N.pl3   1  UNL1       -0.3560
     12 C           7.0321   -1.7953   32.9606 C.ar    1  UNL1        0.0552
     13 C           6.5672   -0.6386   33.7948 C.ar    1  UNL1        0.0153
     14 C           5.1455   -0.5797   34.2693 C.ar    1  UNL1        0.0013
     15 C           4.1886   -1.6774   33.9097 C.ar    1  UNL1        0.0014
     16 C           4.6535   -2.8341   33.0756 C.ar    1  UNL1        0.0159
     17 C           6.0753   -2.8931   32.6010 C.ar    1  UNL1        0.0636
     18 H           9.0818   -1.1338   32.7221 H       1  UNL1        0.1424
     19 H           8.7590   -2.6135   31.9386 H       1  UNL1        0.1424
     20 C           8.5071   -8.5325   26.9411 C.3     1  UNL1        0.1157
     21 N           9.0752   -9.7533   27.6020 N.pl3   1  UNL1       -0.3098
     22 H          10.0290   -9.7829   27.8444 H       1  UNL1        0.1490
     23 C           8.1904  -10.9288   27.8935 C.2     1  UNL1        0.1517
     24 N           6.6905  -10.9289   27.8768 N.2     1  UNL1       -0.2477
     25 C           6.2231  -12.3108   28.2259 C.3     1  UNL1        0.1385
     26 C           7.4342  -13.1648   28.4584 C.3     1  UNL1        0.0937
     27 S           8.6500  -12.3107   28.2530 S.3     1  UNL1       -0.0782
     28 C           4.7953  -12.7599   28.3250 C.ar    1  UNL1        0.0007
     29 C           4.2644  -13.7879   27.3704 C.ar    1  UNL1       -0.0024
     30 C           2.8367  -14.2371   27.4695 C.ar    1  UNL1       -0.0003
     31 C           1.9398  -13.6581   28.5234 C.ar    1  UNL1       -0.0000
     32 C           2.4708  -12.6302   29.4780 C.ar    1  UNL1       -0.0003
     33 C           3.8985  -12.1811   29.3789 C.ar    1  UNL1       -0.0024
@<TRIPOS>BOND
     1    11    12    1
     2    12    13   ar
     3    13    14   ar
     4    14    15   ar
     5    15    16   ar
     6    16    17   ar
     7    17     7    1
     8     7     8   am
     9     8     9    2
    10     8     1    1
    11     1     2   ar
    12     2     3   ar
    13     3     4   ar
    14     4    20    1
    15    20    21    1
    16    21    23    1
    17    23    24    2
    18    24    25    1
    19    25    28    1
    20    28    29   ar
    21    29    30   ar
    22    30    31   ar
    23    31    32   ar
    24    32    33   ar
    25    25    26    1
    26    26    27    1
    27     4     5   ar
    28     5     6   ar
    29    17    12   ar
    30     6     1   ar
    31    27    23    1
    32    33    28   ar
    33    11    18    1
    34    11    19    1
    35     7    10    1
    36    21    22    1
@<TRIPOS>MOLECULE
*****
 33 36 0 0 0
SMALL
GASTEIGER

@<TRIPOS>ATOM
      1 C           8.1032   -6.1095   23.7613 C.ar    1  UNL1        0.0537
      2 C           7.2738   -5.6776   24.9342 C.ar    1  UNL1        0.0042
      3 C           7.3657   -6.4227   26.2328 C.ar    1  UNL1       -0.0025
      4 C           8.2870   -7.5997   26.3585 C.ar    1  UNL1       -0.0026
      5 C           9.1164   -8.0316   25.1856 C.ar    1  UNL1       -0.0025
      6 C           9.0244   -7.2865   23.8870 C.ar    1  UNL1        0.0042
      7 N           7.4739   -3.9641   22.4379 N.am    1  UNL1       -0.2794
      8 C           8.0112   -5.3643   22.4627 C.2     1  UNL1        0.2495
      9 O           8.4565   -6.0194   21.1890 O.2     1  UNL1       -0.2698
     10 H           7.1816   -3.5341   23.2740 H       1  UNL1        0.1552
     11 N           4.8781   -3.8817   20.9363 N.pl3   1  UNL1       -0.3560
     12 C           6.0841   -3.1777   20.3886 C.ar    1  UNL1        0.0552
     13 C           5.9921   -2.4325   19.0900 C.ar    1  UNL1        0.0153
     14 C           7.1981   -1.7286   18.5423 C.ar    1  UNL1        0.0013
     15 C           8.4960   -1.7698   19.2930 C.ar    1  UNL1        0.0014
     16 C           8.5879   -2.5149   20.5916 C.ar    1  UNL1        0.0159
     17 C           7.3820   -3.2189   21.1393 C.ar    1  UNL1        0.0636
     18 H           4.0262   -3.8546   20.4435 H       1  UNL1        0.1424
     19 H           4.9384   -4.3707   21.7886 H       1  UNL1        0.1424
     20 C           8.3790   -8.3449   27.6571 C.3     1  UNL1        0.1157
     21 N           8.9600   -9.7274   27.6889 N.pl3   1  UNL1       -0.3098
     22 H           9.9235   -9.8601   27.5361 H       1  UNL1        0.1490
     23 C           8.0731  -10.9078   27.9535 C.2     1  UNL1        0.1517
     24 N           6.5747  -10.9177   27.8849 N.2     1  UNL1       -0.2477
     25 C           6.1043  -12.3015   28.2222 C.3     1  UNL1        0.1385
     26 C           7.3120  -13.1469   28.4994 C.3     1  UNL1        0.0937
     27 S           8.5288  -12.2855   28.3333 S.3     1  UNL1       -0.0782
     28 C           4.6769  -12.7595   28.2734 C.ar    1  UNL1        0.0007
     29 C           4.1770  -13.7686   27.2826 C.ar    1  UNL1       -0.0024
     30 C           2.7496  -14.2267   27.3337 C.ar    1  UNL1       -0.0003
     31 C           1.8220  -13.6756   28.3758 C.ar    1  UNL1       -0.0000
     32 C           2.3218  -12.6665   29.3667 C.ar    1  UNL1       -0.0003
     33 C           3.7493  -12.2085   29.3155 C.ar    1  UNL1       -0.0024
@<TRIPOS>BOND
     1    11    12    1
     2    12    13   ar
     3    13    14   ar
     4    14    15   ar
     5    15    16   ar
     6    16    17   ar
     7    17     7    1
     8     7     8   am
     9     8     9    2
    10     8     1    1
    11     1     2   ar
    12     2     3   ar
    13     3     4   ar
    14     4    20    1
    15    20    21    1
    16    21    23    1
    17    23    24    2
    18    24    25    1
    19    25    28    1
    20    28    29   ar
    21    29    30   ar
    22    30    31   ar
    23    31    32   ar
    24    32    33   ar
    25    25    26    1
    26    26    27    1
    27     4     5   ar
    28     5     6   ar
    29    17    12   ar
    30     6     1   ar
    31    27    23    1
    32    33    28   ar
    33    11    18    1
    34    11    19    1
    35     7    10    1
    36    21    22    1
@<TRIPOS>MOLECULE
*****
 33 36 0 0 0
SMALL
GASTEIGER

@<TRIPOS>ATOM
      1 C           7.6706   -5.7912   24.2775 C.ar    1  UNL1        0.0537
      2 C           8.4462   -7.0580   24.0689 C.ar    1  UNL1        0.0042
      3 C           8.8429   -7.8971   25.2471 C.ar    1  UNL1       -0.0025
      4 C           8.4641   -7.4694   26.6340 C.ar    1  UNL1       -0.0026
      5 C           7.6885   -6.2026   26.8426 C.ar    1  UNL1       -0.0025
      6 C           7.2917   -5.3635   25.6644 C.ar    1  UNL1        0.0042
      7 N           6.1827   -3.9321   23.2380 N.am    1  UNL1       -0.2794
      8 C           7.2738   -4.9520   23.0991 C.2     1  UNL1        0.2495
      9 O           7.9682   -5.1328   21.7818 O.2     1  UNL1       -0.2698
     10 H           5.7270   -3.8135   24.1026 H       1  UNL1        0.1552
     11 N           7.3442   -1.1879   22.8917 N.pl3   1  UNL1       -0.3560
     12 C           6.3667   -1.7209   21.8865 C.ar    1  UNL1        0.0552
     13 C           5.9699   -0.8818   20.7082 C.ar    1  UNL1        0.0153
     14 C           4.9924   -1.4148   19.7030 C.ar    1  UNL1        0.0013
     15 C           4.4117   -2.7869   19.8762 C.ar    1  UNL1        0.0014
     16 C           4.8084   -3.6260   21.0545 C.ar    1  UNL1        0.0159
     17 C           5.7859   -3.0930   22.0597 C.ar    1  UNL1        0.0636
     18 H           7.7254   -0.2873   22.7780 H       1  UNL1        0.1424
     19 H           7.6046   -1.7386   23.6650 H       1  UNL1        0.1424
     20 C           8.8608   -8.3086   27.8124 C.3     1  UNL1        0.1157
     21 N           9.3484   -9.7117   27.6037 N.pl3   1  UNL1       -0.3098
     22 H          10.2671   -9.8718   27.2882 H       1  UNL1        0.1490
     23 C           8.4362  -10.8709   27.8758 C.2     1  UNL1        0.1517
     24 N           6.9372  -10.8428   27.8302 N.2     1  UNL1       -0.2477
     25 C           6.4373  -12.2163   28.1674 C.3     1  UNL1        0.1385
     26 C           7.6275  -13.0933   28.4215 C.3     1  UNL1        0.0937
     27 S           8.8628  -12.2618   28.2412 S.3     1  UNL1       -0.0782
     28 C           4.9997  -12.6387   28.2382 C.ar    1  UNL1        0.0007
     29 C           4.1133  -12.1035   29.3235 C.ar    1  UNL1       -0.0024
     30 C           2.6758  -12.5258   29.3944 C.ar    1  UNL1       -0.0003
     31 C           2.1246  -13.4834   28.3798 C.ar    1  UNL1       -0.0000
     32 C           3.0110  -14.0186   27.2945 C.ar    1  UNL1       -0.0003
     33 C           4.4486  -13.5963   27.2237 C.ar    1  UNL1       -0.0024
@<TRIPOS>BOND
     1    11    12    1
     2    12    13   ar
     3    13    14   ar
     4    14    15   ar
     5    15    16   ar
     6    16    17   ar
     7    17     7    1
     8     7     8   am
     9     8     9    2
    10     8     1    1
    11     1     2   ar
    12     2     3   ar
    13     3     4   ar
    14     4    20    1
    15    20    21    1
    16    21    23    1
    17    23    24    2
    18    24    25    1
    19    25    28    1
    20    28    29   ar
    21    29    30   ar
    22    30    31   ar
    23    31    32   ar
    24    32    33   ar
    25    25    26    1
    26    26    27    1
    27     4     5   ar
    28     5     6   ar
    29    17    12   ar
    30     6     1   ar
    31    27    23    1
    32    33    28   ar
    33    11    18    1
    34    11    19    1
    35     7    10    1
    36    21    22    1
@<TRIPOS>MOLECULE
*****
 33 36 0 0 0
SMALL
GASTEIGER

@<TRIPOS>ATOM
      1 C           3.8093   -0.6373   30.0003 C.ar    1  UNL1        0.0537
      2 C           5.0739   -1.1915   29.4140 C.ar    1  UNL1        0.0042
      3 C           5.9491   -2.0921   30.2342 C.ar    1  UNL1       -0.0025
      4 C           5.5599   -2.4385   31.6408 C.ar    1  UNL1       -0.0026
      5 C           4.2953   -1.8843   32.2271 C.ar    1  UNL1       -0.0025
      6 C           3.4201   -0.9837   31.4069 C.ar    1  UNL1        0.0042
      7 N           1.7886   -0.3110   28.4002 N.am    1  UNL1       -0.2794
      8 C           2.9340    0.2633   29.1800 C.2     1  UNL1        0.2495
      9 O           3.2042    1.7382   29.1396 O.2     1  UNL1       -0.2698
     10 H           1.6113   -1.2791   28.4267 H       1  UNL1        0.1552
     11 N           2.4649    0.2282   25.5275 N.pl3   1  UNL1       -0.3560
     12 C           1.2515    0.8592   26.1436 C.ar    1  UNL1        0.0552
     13 C           0.3762    1.7597   25.3234 C.ar    1  UNL1        0.0153
     14 C          -0.8372    2.3907   25.9394 C.ar    1  UNL1        0.0013
     15 C          -1.1753    2.1211   27.3757 C.ar    1  UNL1        0.0014
     16 C          -0.3001    1.2205   28.1959 C.ar    1  UNL1        0.0159
     17 C           0.9133    0.5896   27.5799 C.ar    1  UNL1        0.0636
     18 H           2.6868    0.4052   24.5848 H       1  UNL1        0.1424
     19 H           3.0393   -0.3629   26.0659 H       1  UNL1        0.1424
     20 C           6.4352   -3.3391   32.4611 C.3     1  UNL1        0.1157
     21 N           6.3724   -4.8253   32.2679 N.pl3   1  UNL1       -0.3098
     22 H           5.8015   -5.3740   32.8529 H       1  UNL1        0.1490
     23 C           7.1792   -5.4754   31.1833 C.2     1  UNL1        0.1517
     24 N           6.8341   -5.5030   29.7238 N.2     1  UNL1       -0.2477
     25 C           7.9144   -6.2567   29.0063 C.3     1  UNL1        0.1385
     26 C           8.9272   -6.6949   30.0223 C.3     1  UNL1        0.0937
     27 S           8.4728   -6.2120   31.3678 S.3     1  UNL1       -0.0782
     28 C           7.9719   -6.5251   27.5316 C.ar    1  UNL1        0.0007
     29 C           8.7065   -7.7270   27.0161 C.ar    1  UNL1       -0.0024
     30 C           8.7640   -7.9955   25.5414 C.ar    1  UNL1       -0.0003
     31 C           8.0868   -7.0619   24.5822 C.ar    1  UNL1       -0.0000
     32 C           7.3522   -5.8600   25.0977 C.ar    1  UNL1       -0.0003
     33 C           7.2947   -5.5916   26.5724 C.ar    1  UNL1       -0.0024
@<TRIPOS>BOND
     1    11    12    1
     2    12    13   ar
     3    13    14   ar
     4    14    15   ar
     5    15    16   ar
     6    16    17   ar
     7    17     7    1
     8     7     8   am
     9     8     9    2
    10     8     1    1
    11     1     2   ar
    12     2     3   ar
    13     3     4   ar
    14     4    20    1
    15    20    21    1
    16    21    23    1
    17    23    24    2
    18    24    25    1
    19    25    28    1
    20    28    29   ar
    21    29    30   ar
    22    30    31   ar
    23    31    32   ar
    24    32    33   ar
    25    25    26    1
    26    26    27    1
    27     4     5   ar
    28     5     6   ar
    29    17    12   ar
    30     6     1   ar
    31    27    23    1
    32    33    28   ar
    33    11    18    1
    34    11    19    1
    35     7    10    1
    36    21    22    1
@<TRIPOS>MOLECULE
*****
 33 36 0 0 0
SMALL
GASTEIGER

@<TRIPOS>ATOM
      1 C           7.4574   -3.6594   31.5997 C.ar    1  UNL1        0.0537
      2 C           8.7611   -3.0246   31.9835 C.ar    1  UNL1        0.0042
      3 C           8.7726   -1.7967   32.8448 C.ar    1  UNL1       -0.0025
      4 C           7.4804   -1.2035   33.3223 C.ar    1  UNL1       -0.0026
      5 C           6.1766   -1.8382   32.9386 C.ar    1  UNL1       -0.0025
      6 C           6.1651   -3.0662   32.0773 C.ar    1  UNL1        0.0042
      7 N           8.1209   -4.8704   29.3989 N.am    1  UNL1       -0.2794
      8 C           7.4459   -4.8875   30.7383 C.2     1  UNL1        0.2495
      9 O           6.7595   -6.1325   31.2165 O.2     1  UNL1       -0.2698
     10 H           8.5714   -4.0532   29.0851 H       1  UNL1        0.1552
     11 N           6.2741   -5.0310   27.0401 N.pl3   1  UNL1       -0.3560
     12 C           7.1861   -6.1787   27.3582 C.ar    1  UNL1        0.0552
     13 C           7.1747   -7.4067   26.4969 C.ar    1  UNL1        0.0153
     14 C           8.0867   -8.5544   26.8150 C.ar    1  UNL1        0.0013
     15 C           9.0100   -8.4741   27.9943 C.ar    1  UNL1        0.0014
     16 C           9.0214   -7.2461   28.8556 C.ar    1  UNL1        0.0159
     17 C           8.1095   -6.0984   28.5376 C.ar    1  UNL1        0.0636
     18 H           5.6681   -5.0838   26.2661 H       1  UNL1        0.1424
     19 H           6.2816   -4.2251   27.6055 H       1  UNL1        0.1424
     20 C           7.4918    0.0246   34.1837 C.3     1  UNL1        0.1157
     21 N           7.1425   -0.0768   35.6389 N.pl3   1  UNL1       -0.3098
     22 H           7.5739   -0.7592   36.2023 H       1  UNL1        0.1490
     23 C           6.1359    0.8615   36.2357 C.2     1  UNL1        0.1517
     24 N           4.8442    0.4693   36.8896 N.2     1  UNL1       -0.2477
     25 C           4.1542    1.7222   37.3415 C.3     1  UNL1        0.1385
     26 C           5.0195    2.8888   36.9668 C.3     1  UNL1        0.0937
     27 S           6.2442    2.3569   36.2834 S.3     1  UNL1       -0.0782
     28 C           2.8312    1.7957   38.0445 C.ar    1  UNL1        0.0007
     29 C           2.3237    0.6119   38.8134 C.ar    1  UNL1       -0.0024
     30 C           1.0007    0.6853   39.5165 C.ar    1  UNL1       -0.0003
     31 C           0.1852    1.9426   39.4507 C.ar    1  UNL1       -0.0000
     32 C           0.6926    3.1263   38.6818 C.ar    1  UNL1       -0.0003
     33 C           2.0156    3.0528   37.9787 C.ar    1  UNL1       -0.0024
@<TRIPOS>BOND
     1    11    12    1
     2    12    13   ar
     3    13    14   ar
     4    14    15   ar
     5    15    16   ar
     6    16    17   ar
     7    17     7    1
     8     7     8   am
     9     8     9    2
    10     8     1    1
    11     1     2   ar
    12     2     3   ar
    13     3     4   ar
    14     4    20    1
    15    20    21    1
    16    21    23    1
    17    23    24    2
    18    24    25    1
    19    25    28    1
    20    28    29   ar
    21    29    30   ar
    22    30    31   ar
    23    31    32   ar
    24    32    33   ar
    25    25    26    1
    26    26    27    1
    27     4     5   ar
    28     5     6   ar
    29    17    12   ar
    30     6     1   ar
    31    27    23    1
    32    33    28   ar
    33    11    18    1
    34    11    19    1
    35     7    10    1
    36    21    22    1
@<TRIPOS>MOLECULE
*****
 33 36 0 0 0
SMALL
GASTEIGER

@<TRIPOS>ATOM
      1 C           7.9183   -4.0004   25.3877 C.ar    1  UNL1        0.0537
      2 C           9.2021   -3.8417   24.6283 C.ar    1  UNL1        0.0042
      3 C           9.1958   -3.8773   23.1288 C.ar    1  UNL1       -0.0025
      4 C           7.9058   -4.0716   22.3886 C.ar    1  UNL1       -0.0026
      5 C           6.6220   -4.2304   23.1480 C.ar    1  UNL1       -0.0025
      6 C           6.6282   -4.1948   24.6475 C.ar    1  UNL1        0.0042
      7 N           6.6334   -3.8374   27.6399 N.am    1  UNL1       -0.2794
      8 C           7.9246   -3.9648   26.8873 C.2     1  UNL1        0.2495
      9 O           9.2222   -4.0565   27.6342 O.2     1  UNL1       -0.2698
     10 H           5.7817   -3.7772   27.1497 H       1  UNL1        0.1552
     11 N           7.2686   -6.3219   29.1968 N.pl3   1  UNL1       -0.3560
     12 C           6.9573   -5.0440   29.9179 C.ar    1  UNL1        0.0552
     13 C           6.9636   -5.0083   31.4174 C.ar    1  UNL1        0.0153
     14 C           6.6523   -3.7304   32.1386 C.ar    1  UNL1        0.0013
     15 C           6.3347   -2.4882   31.3602 C.ar    1  UNL1        0.0014
     16 C           6.3284   -2.5239   29.8607 C.ar    1  UNL1        0.0159
     17 C           6.6397   -3.8018   29.1395 C.ar    1  UNL1        0.0636
     18 H           7.4770   -7.1372   29.7077 H       1  UNL1        0.1424
     19 H           7.2644   -6.3453   28.2126 H       1  UNL1        0.1424
     20 C           7.8995   -4.1073   20.8890 C.3     1  UNL1        0.1157
     21 N           7.4462   -2.9068   20.1122 N.pl3   1  UNL1       -0.3098
     22 H           8.1027   -2.2358   19.8155 H       1  UNL1        0.1490
     23 C           5.9927   -2.7287   19.7873 C.2     1  UNL1        0.1517
     24 N           5.2077   -1.4580   19.9256 N.2     1  UNL1       -0.2477
     25 C           3.7988   -1.7339   19.4910 C.3     1  UNL1        0.1385
     26 C           3.7131   -3.1752   19.0840 C.3     1  UNL1        0.0937
     27 S           5.0690   -3.7899   19.2672 S.3     1  UNL1       -0.0782
     28 C           2.6733   -0.7426   19.4673 C.ar    1  UNL1        0.0007
     29 C           2.6391    0.3286   18.4179 C.ar    1  UNL1       -0.0024
     30 C           1.5136    1.3199   18.3942 C.ar    1  UNL1       -0.0003
     31 C           0.4221    1.2399   19.4201 C.ar    1  UNL1       -0.0000
     32 C           0.4562    0.1687   20.4696 C.ar    1  UNL1       -0.0003
     33 C           1.5818   -0.8226   20.4932 C.ar    1  UNL1       -0.0024
@<TRIPOS>BOND
     1    11    12    1
     2    12    13   ar
     3    13    14   ar
     4    14    15   ar
     5    15    16   ar
     6    16    17   ar
     7    17     7    1
     8     7     8   am
     9     8     9    2
    10     8     1    1
    11     1     2   ar
    12     2     3   ar
    13     3     4   ar
    14     4    20    1
    15    20    21    1
    16    21    23    1
    17    23    24    2
    18    24    25    1
    19    25    28    1
    20    28    29   ar
    21    29    30   ar
    22    30    31   ar
    23    31    32   ar
    24    32    33   ar
    25    25    26    1
    26    26    27    1
    27     4     5   ar
    28     5     6   ar
    29    17    12   ar
    30     6     1   ar
    31    27    23    1
    32    33    28   ar
    33    11    18    1
    34    11    19    1
    35     7    10    1
    36    21    22    1
@<TRIPOS>MOLECULE
*****
 33 36 0 0 0
SMALL
GASTEIGER

@<TRIPOS>ATOM
      1 C           6.7272   -4.0499   23.5108 C.ar    1  UNL1        0.0537
      2 C           5.3371   -3.6851   23.0810 C.ar    1  UNL1        0.0042
      3 C           5.0163   -3.5420   21.6227 C.ar    1  UNL1       -0.0025
      4 C           6.0854   -3.7636   20.5943 C.ar    1  UNL1       -0.0026
      5 C           7.4755   -4.1284   21.0241 C.ar    1  UNL1       -0.0025
      6 C           7.7963   -4.2716   22.4823 C.ar    1  UNL1        0.0042
      7 N           6.1327   -3.6018   26.0000 N.am    1  UNL1       -0.2794
      8 C           7.0480   -4.1931   24.9691 C.2     1  UNL1        0.2495
      9 O           8.2841   -4.9275   25.3965 O.2     1  UNL1       -0.2698
     10 H           5.3214   -3.1198   25.7194 H       1  UNL1        0.1552
     11 N           5.9113   -6.2825   27.3285 N.pl3   1  UNL1       -0.3560
     12 C           6.3429   -5.0853   28.1225 C.ar    1  UNL1        0.0552
     13 C           6.6637   -5.2284   29.5808 C.ar    1  UNL1        0.0153
     14 C           7.0952   -4.0312   30.3748 C.ar    1  UNL1        0.0013
     15 C           7.2060   -2.6908   29.7105 C.ar    1  UNL1        0.0014
     16 C           6.8851   -2.5478   28.2523 C.ar    1  UNL1        0.0159
     17 C           6.4536   -3.7450   27.4583 C.ar    1  UNL1        0.0636
     18 H           5.8387   -7.1622   27.7645 H       1  UNL1        0.1424
     19 H           5.7008   -6.1886   26.3714 H       1  UNL1        0.1424
     20 C           5.7646   -3.6205   19.1360 C.3     1  UNL1        0.1157
     21 N           4.3401   -3.4623   18.6935 N.pl3   1  UNL1       -0.3098
     22 H           3.8024   -4.2566   18.4718 H       1  UNL1        0.1490
     23 C           3.7348   -2.0939   18.5887 C.2     1  UNL1        0.1517
     24 N           2.7258   -1.5019   19.5276 N.2     1  UNL1       -0.2477
     25 C           2.3997   -0.1193   19.0459 C.3     1  UNL1        0.1385
     26 C           3.2071    0.1432   17.8093 C.3     1  UNL1        0.0937
     27 S           4.0323   -1.0771   17.5268 S.3     1  UNL1       -0.0782
     28 C           1.4354    0.8335   19.6881 C.ar    1  UNL1        0.0007
     29 C           1.1627    0.7459   21.1605 C.ar    1  UNL1       -0.0024
     30 C           0.1984    1.6987   21.8027 C.ar    1  UNL1       -0.0003
     31 C          -0.4932    2.7391   20.9724 C.ar    1  UNL1       -0.0000
     32 C          -0.2205    2.8267   19.5000 C.ar    1  UNL1       -0.0003
     33 C           0.7438    1.8739   18.8578 C.ar    1  UNL1       -0.0024
@<TRIPOS>BOND
     1    11    12    1
     2    12    13   ar
     3    13    14   ar
     4    14    15   ar
     5    15    16   ar
     6    16    17   ar
     7    17     7    1
     8     7     8   am
     9     8     9    2
    10     8     1    1
    11     1     2   ar
    12     2     3   ar
    13     3     4   ar
    14     4    20    1
    15    20    21    1
    16    21    23    1
    17    23    24    2
    18    24    25    1
    19    25    28    1
    20    28    29   ar
    21    29    30   ar
    22    30    31   ar
    23    31    32   ar
    24    32    33   ar
    25    25    26    1
    26    26    27    1
    27     4     5   ar
    28     5     6   ar
    29    17    12   ar
    30     6     1   ar
    31    27    23    1
    32    33    28   ar
    33    11    18    1
    34    11    19    1
    35     7    10    1
    36    21    22    1
@<TRIPOS>MOLECULE
*****
 33 36 0 0 0
SMALL
GASTEIGER

@<TRIPOS>ATOM
      1 C           1.9874   -0.0241   19.1215 C.ar    1  UNL1        0.0537
      2 C           2.1698   -1.1344   20.1134 C.ar    1  UNL1        0.0042
      3 C           3.2525   -2.1522   19.9092 C.ar    1  UNL1       -0.0025
      4 C           4.1529   -2.0597   18.7131 C.ar    1  UNL1       -0.0026
      5 C           3.9705   -0.9494   17.7212 C.ar    1  UNL1       -0.0025
      6 C           2.8877    0.0684   17.9254 C.ar    1  UNL1        0.0042
      7 N           0.9357    2.2851   18.5635 N.am    1  UNL1       -0.2794
      8 C           0.9045    0.9937   19.3257 C.2     1  UNL1        0.2495
      9 O          -0.2094    0.7199   20.2922 O.2     1  UNL1       -0.2698
     10 H           1.6669    2.4648   17.9292 H       1  UNL1        0.1552
     11 N           0.6891    3.7057   21.1943 N.pl3   1  UNL1       -0.3560
     12 C          -0.2704    4.0132   20.0831 C.ar    1  UNL1        0.0552
     13 C          -1.3532    5.0309   20.2873 C.ar    1  UNL1        0.0153
     14 C          -2.3127    5.3384   19.1760 C.ar    1  UNL1        0.0013
     15 C          -2.1894    4.6282   17.8607 C.ar    1  UNL1        0.0014
     16 C          -1.1066    3.6105   17.6565 C.ar    1  UNL1        0.0159
     17 C          -0.1471    3.3029   18.7677 C.ar    1  UNL1        0.0636
     18 H           0.6082    4.1719   22.0577 H       1  UNL1        0.1424
     19 H           1.3998    3.0377   21.0603 H       1  UNL1        0.1424
     20 C           5.2357   -3.0775   18.5089 C.3     1  UNL1        0.1157
     21 N           6.6072   -2.8356   19.0662 N.pl3   1  UNL1       -0.3098
     22 H           7.3120   -2.4571   18.4925 H       1  UNL1        0.1490
     23 C           6.9047   -3.1703   20.4978 C.2     1  UNL1        0.1517
     24 N           7.3488   -4.5057   21.0170 N.2     1  UNL1       -0.2477
     25 C           7.5290   -4.3891   22.5016 C.3     1  UNL1        0.1385
     26 C           7.1963   -2.9817   22.8999 C.3     1  UNL1        0.0937
     27 S           6.8105   -2.2285   21.6614 S.3     1  UNL1       -0.0782
     28 C           7.9653   -5.4872   23.4257 C.ar    1  UNL1        0.0007
     29 C           7.4819   -5.5090   24.8455 C.ar    1  UNL1       -0.0024
     30 C           7.9182   -6.6071   25.7696 C.ar    1  UNL1       -0.0003
     31 C           8.8379   -7.6834   25.2738 C.ar    1  UNL1       -0.0000
     32 C           9.3213   -7.6616   23.8540 C.ar    1  UNL1       -0.0003
     33 C           8.8850   -6.5635   22.9299 C.ar    1  UNL1       -0.0024
@<TRIPOS>BOND
     1    11    12    1
     2    12    13   ar
     3    13    14   ar
     4    14    15   ar
     5    15    16   ar
     6    16    17   ar
     7    17     7    1
     8     7     8   am
     9     8     9    2
    10     8     1    1
    11     1     2   ar
    12     2     3   ar
    13     3     4   ar
    14     4    20    1
    15    20    21    1
    16    21    23    1
    17    23    24    2
    18    24    25    1
    19    25    28    1
    20    28    29   ar
    21    29    30   ar
    22    30    31   ar
    23    31    32   ar
    24    32    33   ar
    25    25    26    1
    26    26    27    1
    27     4     5   ar
    28     5     6   ar
    29    17    12   ar
    30     6     1   ar
    31    27    23    1
    32    33    28   ar
    33    11    18    1
    34    11    19    1
    35     7    10    1
    36    21    22    1
@<TRIPOS>MOLECULE
*****
 33 36 0 0 0
SMALL
GASTEIGER

@<TRIPOS>ATOM
      1 C           7.1375   -3.5907   29.5736 C.ar    1  UNL1        0.0537
      2 C           6.5974   -2.2034   29.3900 C.ar    1  UNL1        0.0042
      3 C           6.0526   -1.4489   30.5663 C.ar    1  UNL1       -0.0025
      4 C           6.0478   -2.0817   31.9263 C.ar    1  UNL1       -0.0026
      5 C           6.5879   -3.4690   32.1098 C.ar    1  UNL1       -0.0025
      6 C           7.1327   -4.2235   30.9335 C.ar    1  UNL1        0.0042
      7 N           6.7445   -4.9663   27.4048 N.am    1  UNL1       -0.2794
      8 C           7.6823   -4.3452   28.3971 C.2     1  UNL1        0.2495
      9 O           9.1650   -4.4786   28.2131 O.2     1  UNL1       -0.2698
     10 H           5.7714   -4.8787   27.5256 H       1  UNL1        0.1552
     11 N           7.5858   -7.8289   27.7176 N.pl3   1  UNL1       -0.3560
     12 C           7.7100   -7.1520   26.3848 C.ar    1  UNL1        0.0552
     13 C           8.2548   -7.9064   25.2083 C.ar    1  UNL1        0.0153
     14 C           8.3790   -7.2296   23.8755 C.ar    1  UNL1        0.0013
     15 C           7.9584   -5.7983   23.7191 C.ar    1  UNL1        0.0014
     16 C           7.4136   -5.0439   24.8955 C.ar    1  UNL1        0.0159
     17 C           7.2894   -5.7208   26.2283 C.ar    1  UNL1        0.0636
     18 H           7.8619   -8.7683   27.8202 H       1  UNL1        0.1424
     19 H           7.2282   -7.3337   28.4897 H       1  UNL1        0.1424
     20 C           5.5030   -1.3272   33.1027 C.3     1  UNL1        0.1157
     21 N           4.0214   -1.1555   33.2627 N.pl3   1  UNL1       -0.3098
     22 H           3.5216   -1.7400   33.8772 H       1  UNL1        0.1490
     23 C           3.3015   -0.0930   32.4863 C.2     1  UNL1        0.1517
     24 N           2.4146   -0.3178   31.2977 N.2     1  UNL1       -0.2477
     25 C           1.9069    1.0170   30.8390 C.3     1  UNL1        0.1385
     26 C           2.4801    2.0669   31.7442 C.3     1  UNL1        0.0937
     27 S           3.3419    1.3809   32.7622 S.3     1  UNL1       -0.0782
     28 C           0.9875    1.2595   29.6788 C.ar    1  UNL1        0.0007
     29 C           0.9640    2.6010   29.0081 C.ar    1  UNL1       -0.0024
     30 C           0.0447    2.8435   27.8479 C.ar    1  UNL1       -0.0003
     31 C          -0.8513    1.7444   27.3585 C.ar    1  UNL1       -0.0000
     32 C          -0.8278    0.4030   28.0293 C.ar    1  UNL1       -0.0003
     33 C           0.0916    0.1605   29.1894 C.ar    1  UNL1       -0.0024
@<TRIPOS>BOND
     1    11    12    1
     2    12    13   ar
     3    13    14   ar
     4    14    15   ar
     5    15    16   ar
     6    16    17   ar
     7    17     7    1
     8     7     8   am
     9     8     9    2
    10     8     1    1
    11     1     2   ar
    12     2     3   ar
    13     3     4   ar
    14     4    20    1
    15    20    21    1
    16    21    23    1
    17    23    24    2
    18    24    25    1
    19    25    28    1
    20    28    29   ar
    21    29    30   ar
    22    30    31   ar
    23    31    32   ar
    24    32    33   ar
    25    25    26    1
    26    26    27    1
    27     4     5   ar
    28     5     6   ar
    29    17    12   ar
    30     6     1   ar
    31    27    23    1
    32    33    28   ar
    33    11    18    1
    34    11    19    1
    35     7    10    1
    36    21    22    1
