@<TRIPOS>MOLECULE
*****
 27 29 0 0 0
SMALL
GASTEIGER

@<TRIPOS>ATOM
      1 C          -7.5670  -19.9328   20.5752 C.ar    1  UNL1        0.1386
      2 C          -8.7719  -19.3116   19.9333 C.ar    1  UNL1        0.0370
      3 C          -9.7728  -18.5746   20.7728 C.ar    1  UNL1        0.0060
      4 C          -9.5687  -18.4587   22.2544 C.ar    1  UNL1        0.0363
      5 C          -8.3638  -19.0798   22.8963 C.ar    1  UNL1        0.0060
      6 C          -7.3629  -19.8169   22.0567 C.ar    1  UNL1        0.0370
      7 C         -10.5697  -17.7216   23.0939 C.2     1  UNL1        0.1892
      8 O         -11.8630  -18.3813   23.4712 O.2     1  UNL1       -0.2899
      9 C         -10.2774  -16.3249   23.5562 C.3     1  UNL1        0.1423
     10 N          -8.9515  -16.0033   24.1798 N.3     1  UNL1       -0.2658
     11 C          -8.7774  -16.1049   25.6661 C.3     1  UNL1        0.0781
     12 C          -7.4516  -15.7833   26.2896 C.3     1  UNL1        0.0839
     13 C          -6.2999  -15.3600   25.4267 C.3     1  UNL1        0.2666
     14 F          -4.9216  -14.9188   25.0326 F       1  UNL1       -0.2042
     15 F          -5.6471  -15.3085   26.7762 F       1  UNL1       -0.2042
     16 C          -6.4741  -15.2583   23.9404 C.3     1  UNL1        0.0839
     17 C          -7.7999  -15.5800   23.3169 C.3     1  UNL1        0.0781
     18 O          -6.5660  -20.6699   19.7356 O.3     1  UNL1       -0.4754
     19 C          -5.2479  -21.0771   20.3245 C.3     1  UNL1        0.2068
     20 C          -3.9973  -20.3409   19.9448 C.3     1  UNL1        0.0646
     21 C          -2.9772  -20.0055   20.9921 C.3     1  UNL1        0.0759
     22 C          -3.9109  -17.8981   23.3022 C.3     1  UNL1        0.0173
     23 C          -2.9242  -17.6247   22.2061 C.3     1  UNL1        0.0576
     24 C          -2.1934  -16.3345   21.9793 C.3     1  UNL1        0.0174
     25 C          -1.3126  -16.5057   20.7772 C.3     1  UNL1        0.0187
     26 C          -1.4990  -17.9018   20.2612 C.3     1  UNL1        0.0721
     27 N          -2.4950  -18.5933   21.1442 N.3     1  UNL1       -0.2738
@<TRIPOS>BOND
     1    23    22    1
     2    23    24    1
     3    24    25    1
     4    25    26    1
     5    26    27    1
     6    27    21    1
     7    21    20    1
     8    20    19    1
     9    19    18    1
    10    18     1    1
    11     1     2   ar
    12     2     3   ar
    13     3     4   ar
    14     4     7    1
    15     7     8    2
    16     7     9    1
    17     9    10    1
    18    10    11    1
    19    11    12    1
    20    12    13    1
    21    13    14    1
    22    13    15    1
    23    13    16    1
    24    16    17    1
    25     4     5   ar
    26     5     6   ar
    27    27    23    1
    28     6     1   ar
    29    17    10    1
@<TRIPOS>MOLECULE
*****
 27 29 0 0 0
SMALL
GASTEIGER

@<TRIPOS>ATOM
      1 C         -10.1845  -18.4688   19.8765 C.ar    1  UNL1        0.1386
      2 C          -9.6728  -19.5579   18.9810 C.ar    1  UNL1        0.0370
      3 C          -8.3491  -20.2032   19.2661 C.ar    1  UNL1        0.0060
      4 C          -7.5371  -19.7594   20.4467 C.ar    1  UNL1        0.0363
      5 C          -8.0489  -18.6703   21.3421 C.ar    1  UNL1        0.0060
      6 C          -9.3726  -18.0250   21.0571 C.ar    1  UNL1        0.0370
      7 C          -6.2134  -20.4048   20.7317 C.2     1  UNL1        0.1892
      8 O          -5.8810  -21.7350   20.1232 O.2     1  UNL1       -0.2899
      9 C          -5.2221  -19.7201   21.6252 C.3     1  UNL1        0.1423
     10 N          -3.9365  -19.1965   21.0568 N.3     1  UNL1       -0.2658
     11 C          -3.8144  -18.9481   19.5826 C.3     1  UNL1        0.0781
     12 C          -2.5288  -18.4245   19.0142 C.3     1  UNL1        0.0839
     13 C          -1.3653  -18.1493   19.9200 C.3     1  UNL1        0.2666
     14 F           0.0060  -17.7383   20.3678 F       1  UNL1       -0.2042
     15 F          -0.7670  -17.7581   18.6013 F       1  UNL1       -0.2042
     16 C          -1.4874  -18.3978   21.3942 C.3     1  UNL1        0.0839
     17 C          -2.7729  -18.9213   21.9626 C.3     1  UNL1        0.0781
     18 O         -11.5083  -17.8233   19.5914 O.3     1  UNL1       -0.4754
     19 C         -11.8202  -16.4698   20.1576 C.3     1  UNL1        0.2068
     20 C         -12.6318  -16.3510   21.4135 C.3     1  UNL1        0.0646
     21 C         -11.9518  -16.0832   22.7234 C.3     1  UNL1        0.0759
     22 C          -9.1348  -15.9946   24.3684 C.3     1  UNL1        0.0173
     23 C         -10.0538  -17.1747   24.2567 C.3     1  UNL1        0.0576
     24 C          -9.8394  -18.5214   24.8815 C.3     1  UNL1        0.0174
     25 C         -11.0017  -19.3945   24.5115 C.3     1  UNL1        0.0187
     26 C         -11.9345  -18.5874   23.6581 C.3     1  UNL1        0.0721
     27 N         -11.3487  -17.2155   23.5005 N.3     1  UNL1       -0.2738
@<TRIPOS>BOND
     1    23    22    1
     2    23    24    1
     3    24    25    1
     4    25    26    1
     5    26    27    1
     6    27    21    1
     7    21    20    1
     8    20    19    1
     9    19    18    1
    10    18     1    1
    11     1     2   ar
    12     2     3   ar
    13     3     4   ar
    14     4     7    1
    15     7     8    2
    16     7     9    1
    17     9    10    1
    18    10    11    1
    19    11    12    1
    20    12    13    1
    21    13    14    1
    22    13    15    1
    23    13    16    1
    24    16    17    1
    25     4     5   ar
    26     5     6   ar
    27    27    23    1
    28     6     1   ar
    29    17    10    1
@<TRIPOS>MOLECULE
*****
 27 29 0 0 0
SMALL
GASTEIGER

@<TRIPOS>ATOM
      1 C          -9.5659  -17.0402   21.3748 C.ar    1  UNL1        0.1386
      2 C          -9.5349  -18.1201   20.3343 C.ar    1  UNL1        0.0370
      3 C          -8.4020  -19.1027   20.3067 C.ar    1  UNL1        0.0060
      4 C          -7.3000  -19.0054   21.3197 C.ar    1  UNL1        0.0363
      5 C          -7.3310  -17.9255   22.3603 C.ar    1  UNL1        0.0060
      6 C          -8.4639  -16.9429   22.3878 C.ar    1  UNL1        0.0370
      7 C          -6.1670  -19.9881   21.2921 C.2     1  UNL1        0.1892
      8 O          -6.2280  -21.1777   20.3804 O.2     1  UNL1       -0.2899
      9 C          -4.9730  -19.7812   22.1761 C.3     1  UNL1        0.1423
     10 N          -3.8770  -18.8496   21.7505 N.3     1  UNL1       -0.2658
     11 C          -3.1262  -19.1067   20.4777 C.3     1  UNL1        0.0781
     12 C          -2.0303  -18.1752   20.0521 C.3     1  UNL1        0.0839
     13 C          -1.6853  -16.9864   20.8993 C.3     1  UNL1        0.2666
     14 F          -0.9963  -15.7362   21.3600 F       1  UNL1       -0.2042
     15 F          -0.6952  -16.8094   19.7865 F       1  UNL1       -0.2042
     16 C          -2.4361  -16.7293   22.1722 C.3     1  UNL1        0.0839
     17 C          -3.5320  -17.6608   22.5977 C.3     1  UNL1        0.0781
     18 O         -10.6989  -16.0575   21.4025 O.3     1  UNL1       -0.4754
     19 C         -11.6282  -16.0171   22.5792 C.3     1  UNL1        0.2068
     20 C         -12.8934  -16.8228   22.5638 C.3     1  UNL1        0.0646
     21 C         -12.9476  -18.1476   23.2653 C.3     1  UNL1        0.0759
     22 C         -11.4179  -20.5592   21.6862 C.3     1  UNL1        0.0173
     23 C         -10.9752  -19.9277   22.9727 C.3     1  UNL1        0.0576
     24 C          -9.7516  -20.2939   23.7593 C.3     1  UNL1        0.0174
     25 C          -9.6984  -19.4116   24.9713 C.3     1  UNL1        0.0187
     26 C         -10.8892  -18.5003   24.9337 C.3     1  UNL1        0.0721
     27 N         -11.6783  -18.8192   23.6986 N.3     1  UNL1       -0.2738
@<TRIPOS>BOND
     1    23    22    1
     2    23    24    1
     3    24    25    1
     4    25    26    1
     5    26    27    1
     6    27    21    1
     7    21    20    1
     8    20    19    1
     9    19    18    1
    10    18     1    1
    11     1     2   ar
    12     2     3   ar
    13     3     4   ar
    14     4     7    1
    15     7     8    2
    16     7     9    1
    17     9    10    1
    18    10    11    1
    19    11    12    1
    20    12    13    1
    21    13    14    1
    22    13    15    1
    23    13    16    1
    24    16    17    1
    25     4     5   ar
    26     5     6   ar
    27    27    23    1
    28     6     1   ar
    29    17    10    1
@<TRIPOS>MOLECULE
*****
 27 29 0 0 0
SMALL
GASTEIGER

@<TRIPOS>ATOM
      1 C          -8.1417  -16.0102   25.6932 C.ar    1  UNL1        0.1386
      2 C          -8.5663  -17.2535   26.4171 C.ar    1  UNL1        0.0370
      3 C          -9.6523  -18.1182   25.8489 C.ar    1  UNL1        0.0060
      4 C         -10.3136  -17.7397   24.5569 C.ar    1  UNL1        0.0363
      5 C          -9.8890  -16.4964   23.8330 C.ar    1  UNL1        0.0060
      6 C          -8.8031  -15.6317   24.4012 C.ar    1  UNL1        0.0370
      7 C         -11.3996  -18.6045   23.9887 C.2     1  UNL1        0.1892
      8 O         -12.8384  -18.2704   24.2502 O.2     1  UNL1       -0.2899
      9 C         -11.0469  -19.8034   23.1591 C.3     1  UNL1        0.1423
     10 N         -10.0686  -19.6723   22.0295 N.3     1  UNL1       -0.2658
     11 C          -8.5999  -19.5723   22.3171 C.3     1  UNL1        0.0781
     12 C          -7.6218  -19.4413   21.1875 C.3     1  UNL1        0.0839
     13 C          -8.1124  -19.4101   19.7704 C.3     1  UNL1        0.2666
     14 F          -8.0901  -19.3353   18.2724 F       1  UNL1       -0.2042
     15 F          -6.6359  -19.2842   19.5377 F       1  UNL1       -0.2042
     16 C          -9.5811  -19.5101   19.4828 C.3     1  UNL1        0.0839
     17 C         -10.5592  -19.6412   20.6124 C.3     1  UNL1        0.0781
     18 O          -7.0557  -15.1454   26.2614 O.3     1  UNL1       -0.4754
     19 C          -5.6221  -15.4154   25.9124 C.3     1  UNL1        0.2068
     20 C          -5.1810  -15.3870   24.4790 C.3     1  UNL1        0.0646
     21 C          -5.0777  -16.6650   23.7005 C.3     1  UNL1        0.0759
     22 C          -4.1671  -19.5409   22.4558 C.3     1  UNL1        0.0173
     23 C          -3.4799  -18.2263   22.2329 C.3     1  UNL1        0.0576
     24 C          -2.2534  -18.0029   21.3987 C.3     1  UNL1        0.0174
     25 C          -1.9140  -16.5429   21.4552 C.3     1  UNL1        0.0187
     26 C          -2.9306  -15.8640   22.3244 C.3     1  UNL1        0.0721
     27 N          -3.8984  -16.9044   22.8050 N.3     1  UNL1       -0.2738
@<TRIPOS>BOND
     1    23    22    1
     2    23    24    1
     3    24    25    1
     4    25    26    1
     5    26    27    1
     6    27    21    1
     7    21    20    1
     8    20    19    1
     9    19    18    1
    10    18     1    1
    11     1     2   ar
    12     2     3   ar
    13     3     4   ar
    14     4     7    1
    15     7     8    2
    16     7     9    1
    17     9    10    1
    18    10    11    1
    19    11    12    1
    20    12    13    1
    21    13    14    1
    22    13    15    1
    23    13    16    1
    24    16    17    1
    25     4     5   ar
    26     5     6   ar
    27    27    23    1
    28     6     1   ar
    29    17    10    1
@<TRIPOS>MOLECULE
*****
 27 29 0 0 0
SMALL
GASTEIGER

@<TRIPOS>ATOM
      1 C         -15.5369   -4.5791   19.5249 C.ar    1  UNL1        0.1386
      2 C         -15.3739   -4.1052   18.1111 C.ar    1  UNL1        0.0370
      3 C         -14.1789   -3.2832   17.7287 C.ar    1  UNL1        0.0060
      4 C         -13.1469   -2.9351   18.7601 C.ar    1  UNL1        0.0363
      5 C         -13.3099   -3.4090   20.1739 C.ar    1  UNL1        0.0060
      6 C         -14.5049   -4.2310   20.5563 C.ar    1  UNL1        0.0370
      7 C         -11.9519   -2.1130   18.3777 C.2     1  UNL1        0.1892
      8 O         -11.9274   -0.6426   18.6732 O.2     1  UNL1       -0.2899
      9 C         -10.7815   -2.7614   17.6997 C.3     1  UNL1        0.1423
     10 N         -10.5509   -4.2361   17.8485 N.3     1  UNL1       -0.2658
     11 C         -11.0927   -5.1872   16.8230 C.3     1  UNL1        0.0781
     12 C         -10.8622   -6.6618   16.9719 C.3     1  UNL1        0.0839
     13 C         -10.0898   -7.1854   18.1463 C.3     1  UNL1        0.2666
     14 F          -9.4254   -8.1564   19.0768 F       1  UNL1       -0.2042
     15 F         -10.4009   -8.4737   17.4439 F       1  UNL1       -0.2042
     16 C          -9.5479   -6.2343   19.1719 C.3     1  UNL1        0.0839
     17 C          -9.7785   -4.7596   19.0230 C.3     1  UNL1        0.0781
     18 O         -16.7319   -5.4012   19.9073 O.3     1  UNL1       -0.4754
     19 C         -17.9600   -5.3850   19.0463 C.3     1  UNL1        0.2068
     20 C         -18.6704   -6.6675   18.7289 C.3     1  UNL1        0.0646
     21 C         -18.1015   -7.6071   17.7074 C.3     1  UNL1        0.0759
     22 C         -16.4510   -9.0980   20.0953 C.3     1  UNL1        0.0173
     23 C         -15.8746   -8.5990   18.8036 C.3     1  UNL1        0.0576
     24 C         -14.4382   -8.6977   18.3826 C.3     1  UNL1        0.0174
     25 C         -14.3091   -8.0734   17.0248 C.3     1  UNL1        0.0187
     26 C         -15.6657   -7.5889   16.6066 C.3     1  UNL1        0.0721
     27 N         -16.6332   -7.9137   17.7059 N.3     1  UNL1       -0.2738
@<TRIPOS>BOND
     1    23    22    1
     2    23    24    1
     3    24    25    1
     4    25    26    1
     5    26    27    1
     6    27    21    1
     7    21    20    1
     8    20    19    1
     9    19    18    1
    10    18     1    1
    11     1     2   ar
    12     2     3   ar
    13     3     4   ar
    14     4     7    1
    15     7     8    2
    16     7     9    1
    17     9    10    1
    18    10    11    1
    19    11    12    1
    20    12    13    1
    21    13    14    1
    22    13    15    1
    23    13    16    1
    24    16    17    1
    25     4     5   ar
    26     5     6   ar
    27    27    23    1
    28     6     1   ar
    29    17    10    1
@<TRIPOS>MOLECULE
*****
 27 29 0 0 0
SMALL
GASTEIGER

@<TRIPOS>ATOM
      1 C         -17.0354   -4.5434   18.6545 C.ar    1  UNL1        0.1386
      2 C         -16.0558   -4.5415   17.5187 C.ar    1  UNL1        0.0370
      3 C         -15.1711   -5.7309   17.2895 C.ar    1  UNL1        0.0060
      4 C         -15.2660   -6.9222   18.1961 C.ar    1  UNL1        0.0363
      5 C         -16.2457   -6.9240   19.3319 C.ar    1  UNL1        0.0060
      6 C         -17.1304   -5.7346   19.5611 C.ar    1  UNL1        0.0370
      7 C         -14.3813   -8.1116   17.9668 C.2     1  UNL1        0.1892
      8 O         -14.6749   -9.4093   18.6593 O.2     1  UNL1       -0.2899
      9 C         -13.2029   -8.0032   17.0450 C.3     1  UNL1        0.1423
     10 N         -12.1206   -7.0032   17.3256 N.3     1  UNL1       -0.2658
     11 C         -11.5890   -6.8446   18.7192 C.3     1  UNL1        0.0781
     12 C         -10.5067   -5.8446   18.9997 C.3     1  UNL1        0.0839
     13 C          -9.9562   -5.0032   17.8867 C.3     1  UNL1        0.2666
     14 F          -9.1201   -3.9838   17.1714 F       1  UNL1       -0.2042
     15 F          -9.1341   -4.4906   19.0319 F       1  UNL1       -0.2042
     16 C         -10.4878   -5.1618   16.4931 C.3     1  UNL1        0.0839
     17 C         -11.5700   -6.1618   16.2126 C.3     1  UNL1        0.0781
     18 O         -17.9202   -3.3539   18.8838 O.3     1  UNL1       -0.4754
     19 C         -17.7504   -2.1205   18.0473 C.3     1  UNL1        0.2068
     20 C         -16.8590   -1.0105   18.5200 C.3     1  UNL1        0.0646
     21 C         -15.8942   -1.2501   19.6433 C.3     1  UNL1        0.0759
     22 C         -14.1624   -3.7276   20.8730 C.3     1  UNL1        0.0173
     23 C         -13.6601   -2.6932   19.9099 C.3     1  UNL1        0.0576
     24 C         -12.2736   -2.6159   19.3430 C.3     1  UNL1        0.0174
     25 C         -12.2126   -1.4294   18.4273 C.3     1  UNL1        0.0187
     26 C         -13.5615   -0.7733   18.4283 C.3     1  UNL1        0.0721
     27 N         -14.4561   -1.5544   19.3447 N.3     1  UNL1       -0.2738
@<TRIPOS>BOND
     1    23    22    1
     2    23    24    1
     3    24    25    1
     4    25    26    1
     5    26    27    1
     6    27    21    1
     7    21    20    1
     8    20    19    1
     9    19    18    1
    10    18     1    1
    11     1     2   ar
    12     2     3   ar
    13     3     4   ar
    14     4     7    1
    15     7     8    2
    16     7     9    1
    17     9    10    1
    18    10    11    1
    19    11    12    1
    20    12    13    1
    21    13    14    1
    22    13    15    1
    23    13    16    1
    24    16    17    1
    25     4     5   ar
    26     5     6   ar
    27    27    23    1
    28     6     1   ar
    29    17    10    1
@<TRIPOS>MOLECULE
*****
 27 29 0 0 0
SMALL
GASTEIGER

@<TRIPOS>ATOM
      1 C         -10.3514   -2.7736   17.2899 C.ar    1  UNL1        0.1386
      2 C         -10.4939   -3.5969   16.0443 C.ar    1  UNL1        0.0370
      3 C         -10.4953   -5.0944   16.1312 C.ar    1  UNL1        0.0060
      4 C         -10.3540   -5.7685   17.4637 C.ar    1  UNL1        0.0363
      5 C         -10.2115   -4.9451   18.7094 C.ar    1  UNL1        0.0060
      6 C         -10.2102   -3.4476   18.6225 C.ar    1  UNL1        0.0370
      7 C         -10.3554   -7.2660   17.5506 C.2     1  UNL1        0.1892
      8 O          -9.2620   -7.9751   18.2933 O.2     1  UNL1       -0.2899
      9 C         -11.4500   -8.0543   16.8947 C.3     1  UNL1        0.1423
     10 N         -12.8849   -7.6897   17.1360 N.3     1  UNL1       -0.2658
     11 C         -13.4360   -7.6963   18.5311 C.3     1  UNL1        0.0781
     12 C         -14.8709   -7.3316   18.7723 C.3     1  UNL1        0.0839
     13 C         -15.7546   -6.9605   17.6185 C.3     1  UNL1        0.2666
     14 F         -16.9772   -6.5409   16.8575 F       1  UNL1       -0.2042
     15 F         -16.7303   -6.8213   18.7493 F       1  UNL1       -0.2042
     16 C         -15.2035   -6.9539   16.2235 C.3     1  UNL1        0.0839
     17 C         -13.7687   -7.3185   15.9822 C.3     1  UNL1        0.0781
     18 O         -10.3500   -1.2760   17.2031 O.3     1  UNL1       -0.4754
     19 C         -11.6387   -0.5353   17.0018 C.3     1  UNL1        0.2068
     20 C         -12.7258   -0.6279   18.0313 C.3     1  UNL1        0.0646
     21 C         -13.8598   -1.5909   17.8401 C.3     1  UNL1        0.0759
     22 C         -16.6269   -3.3097   18.0348 C.3     1  UNL1        0.0173
     23 C         -15.5064   -3.3267   19.0319 C.3     1  UNL1        0.0576
     24 C         -15.4610   -4.1368   20.2935 C.3     1  UNL1        0.0174
     25 C         -14.1611   -3.8474   20.9838 C.3     1  UNL1        0.0187
     26 C         -13.4030   -2.8584   20.1487 C.3     1  UNL1        0.0721
     27 N         -14.2345   -2.5366   18.9424 N.3     1  UNL1       -0.2738
@<TRIPOS>BOND
     1    23    22    1
     2    23    24    1
     3    24    25    1
     4    25    26    1
     5    26    27    1
     6    27    21    1
     7    21    20    1
     8    20    19    1
     9    19    18    1
    10    18     1    1
    11     1     2   ar
    12     2     3   ar
    13     3     4   ar
    14     4     7    1
    15     7     8    2
    16     7     9    1
    17     9    10    1
    18    10    11    1
    19    11    12    1
    20    12    13    1
    21    13    14    1
    22    13    15    1
    23    13    16    1
    24    16    17    1
    25     4     5   ar
    26     5     6   ar
    27    27    23    1
    28     6     1   ar
    29    17    10    1
@<TRIPOS>MOLECULE
*****
 27 29 0 0 0
SMALL
GASTEIGER

@<TRIPOS>ATOM
      1 C         -13.2288   -2.4375   19.3436 C.ar    1  UNL1        0.1386
      2 C         -14.2248   -2.0161   18.3042 C.ar    1  UNL1        0.0370
      3 C         -15.6279   -2.5442   18.3523 C.ar    1  UNL1        0.0060
      4 C         -16.0350   -3.4937   19.4399 C.ar    1  UNL1        0.0363
      5 C         -15.0390   -3.9151   20.4793 C.ar    1  UNL1        0.0060
      6 C         -13.6359   -3.3870   20.4311 C.ar    1  UNL1        0.0370
      7 C         -17.4382   -4.0218   19.4880 C.2     1  UNL1        0.1892
      8 O         -18.3753   -3.5639   20.5660 O.2     1  UNL1       -0.2899
      9 C         -17.9042   -5.0078   18.4581 C.3     1  UNL1        0.1423
     10 N         -17.5418   -6.4574   18.5896 N.3     1  UNL1       -0.2658
     11 C         -16.7090   -7.1211   17.5332 C.3     1  UNL1        0.0781
     12 C         -16.3467   -8.5707   17.6647 C.3     1  UNL1        0.0839
     13 C         -16.8170   -9.3566   18.8526 C.3     1  UNL1        0.2666
     14 F         -17.0230  -10.5125   19.7861 F       1  UNL1       -0.2042
     15 F         -16.0558  -10.4217   18.1204 F       1  UNL1       -0.2042
     16 C         -17.6498   -8.6929   19.9090 C.3     1  UNL1        0.0839
     17 C         -18.0121   -7.2433   19.7775 C.3     1  UNL1        0.0781
     18 O         -11.8256   -1.9094   19.2955 O.3     1  UNL1       -0.4754
     19 C         -11.2067   -1.5434   17.9791 C.3     1  UNL1        0.2068
     20 C         -10.3494   -2.5363   17.2515 C.3     1  UNL1        0.0646
     21 C         -10.9800   -3.7142   16.5698 C.3     1  UNL1        0.0759
     22 C          -9.6911   -5.2328   19.1547 C.3     1  UNL1        0.0173
     23 C         -11.0503   -5.4836   18.5721 C.3     1  UNL1        0.0576
     24 C         -12.0558   -6.4764   19.0753 C.3     1  UNL1        0.0174
     25 C         -13.2697   -6.3921   18.1981 C.3     1  UNL1        0.0187
     26 C         -13.0144   -5.3471   17.1528 C.3     1  UNL1        0.0721
     27 N         -11.6428   -4.7856   17.3839 N.3     1  UNL1       -0.2738
@<TRIPOS>BOND
     1    23    22    1
     2    23    24    1
     3    24    25    1
     4    25    26    1
     5    26    27    1
     6    27    21    1
     7    21    20    1
     8    20    19    1
     9    19    18    1
    10    18     1    1
    11     1     2   ar
    12     2     3   ar
    13     3     4   ar
    14     4     7    1
    15     7     8    2
    16     7     9    1
    17     9    10    1
    18    10    11    1
    19    11    12    1
    20    12    13    1
    21    13    14    1
    22    13    15    1
    23    13    16    1
    24    16    17    1
    25     4     5   ar
    26     5     6   ar
    27    27    23    1
    28     6     1   ar
    29    17    10    1
@<TRIPOS>MOLECULE
*****
 27 29 0 0 0
SMALL
GASTEIGER

@<TRIPOS>ATOM
      1 C          -6.6883  -20.1049   21.1542 C.ar    1  UNL1        0.1386
      2 C          -5.9761  -19.2953   22.1969 C.ar    1  UNL1        0.0370
      3 C          -6.4858  -17.9339   22.5667 C.ar    1  UNL1        0.0060
      4 C          -7.7077  -17.3822   21.8938 C.ar    1  UNL1        0.0363
      5 C          -8.4198  -18.1918   20.8511 C.ar    1  UNL1        0.0060
      6 C          -7.9101  -19.5532   20.4813 C.ar    1  UNL1        0.0370
      7 C          -8.2173  -16.0207   22.2637 C.2     1  UNL1        0.1892
      8 O          -7.8695  -14.8337   21.4152 O.2     1  UNL1       -0.2899
      9 C          -9.0747  -15.8464   23.4821 C.3     1  UNL1        0.1423
     10 N         -10.3581  -16.6120   23.6118 N.3     1  UNL1       -0.2658
     11 C         -11.5661  -16.1891   22.8297 C.3     1  UNL1        0.0781
     12 C         -12.8494  -16.9547   22.9595 C.3     1  UNL1        0.0839
     13 C         -12.9247  -18.1433   23.8715 C.3     1  UNL1        0.2666
     14 F         -13.4875  -19.3278   24.5996 F       1  UNL1       -0.2042
     15 F         -14.3282  -18.1318   23.3422 F       1  UNL1       -0.2042
     16 C         -11.7167  -18.5662   24.6536 C.3     1  UNL1        0.0839
     17 C         -10.4334  -17.8006   24.5238 C.3     1  UNL1        0.0781
     18 O          -6.1786  -21.4664   20.7843 O.3     1  UNL1       -0.4754
     19 C          -5.0027  -21.6023   19.8630 C.3     1  UNL1        0.2068
     20 C          -3.7619  -20.7952   20.1065 C.3     1  UNL1        0.0646
     21 C          -3.6030  -19.4507   19.4609 C.3     1  UNL1        0.0759
     22 C          -1.3253  -17.5978   18.0367 C.3     1  UNL1        0.0173
     23 C          -1.7372  -17.5367   19.4778 C.3     1  UNL1        0.0576
     24 C          -1.1745  -16.6132   20.5172 C.3     1  UNL1        0.0174
     25 C          -1.8736  -16.8941   21.8143 C.3     1  UNL1        0.0187
     26 C          -2.8685  -17.9912   21.5764 C.3     1  UNL1        0.0721
     27 N          -2.7842  -18.3884   20.1324 N.3     1  UNL1       -0.2738
@<TRIPOS>BOND
     1    23    22    1
     2    23    24    1
     3    24    25    1
     4    25    26    1
     5    26    27    1
     6    27    21    1
     7    21    20    1
     8    20    19    1
     9    19    18    1
    10    18     1    1
    11     1     2   ar
    12     2     3   ar
    13     3     4   ar
    14     4     7    1
    15     7     8    2
    16     7     9    1
    17     9    10    1
    18    10    11    1
    19    11    12    1
    20    12    13    1
    21    13    14    1
    22    13    15    1
    23    13    16    1
    24    16    17    1
    25     4     5   ar
    26     5     6   ar
    27    27    23    1
    28     6     1   ar
    29    17    10    1
