@<TRIPOS>MOLECULE
*****
 35 38 0 0 0
SMALL
GASTEIGER

@<TRIPOS>ATOM
      1 C          -6.1807  -19.0817   21.5662 C.ar    1  UNL1        0.0847
      2 C          -6.4195  -20.2324   22.4985 C.ar    1  UNL1        0.0192
      3 C          -7.8125  -20.7437   22.7173 C.ar    1  UNL1        0.0017
      4 C          -8.9669  -20.1043   22.0040 C.ar    1  UNL1        0.0046
      5 C          -8.7281  -18.9536   21.0719 C.ar    1  UNL1        0.0549
      6 C          -7.3350  -18.4424   20.8530 C.ar    1  UNL1        0.0237
      7 C          -2.5820  -18.2140   20.3993 C.ar    1  UNL1        0.1608
      8 N          -2.7056  -17.3536   21.6218 N.ar    1  UNL1       -0.2073
      9 C          -4.0688  -17.5739   22.2077 C.ar    1  UNL1        0.2012
     10 N          -4.7876  -18.5705   21.3474 N.ar    1  UNL1       -0.2083
     11 N          -3.8687  -18.9661   20.2297 N.ar    1  UNL1       -0.1488
     12 C          -4.6169  -16.9136   23.4380 C.ar    1  UNL1        0.1992
     13 N          -5.6760  -15.8586   23.3144 N.ar    1  UNL1       -0.2192
     14 C          -6.2240  -15.1983   24.5447 C.ar    1  UNL1        0.1390
     15 C          -5.7130  -15.5930   25.8986 C.ar    1  UNL1        0.1769
     16 C          -4.6539  -16.6480   26.0222 C.ar    1  UNL1        0.1390
     17 N          -4.1058  -17.3083   24.7919 N.ar    1  UNL1       -0.2192
     18 O          -6.2610  -14.9326   27.1289 O.3     1  UNL1       -0.4683
     19 C          -7.6793  -15.1849   27.5469 C.3     1  UNL1        0.2526
     20 C          -0.0574  -17.7778   19.9679 C.3     1  UNL1        0.0085
     21 C          -1.3822  -18.3062   19.5037 C.3     1  UNL1        0.0676
     22 C          -9.8824  -18.3142   20.3586 C.2     1  UNL1        0.2459
     23 O         -10.7946  -19.1489   19.5093 O.2     1  UNL1       -0.2701
     24 N         -10.1244  -16.8401   20.4945 N.am    1  UNL1       -0.3009
     25 H          -9.5257  -16.2923   21.0519 H       1  UNL1        0.1497
     26 C         -11.2787  -16.2007   19.7812 C.3     1  UNL1        0.0897
     27 C         -12.6459  -16.2215   20.3980 C.3     1  UNL1        0.0216
     28 C         -12.7954  -16.2196   21.8906 C.3     1  UNL1        0.0064
     29 C         -12.7479  -17.5119   22.6507 C.3     1  UNL1        0.0264
     30 C         -11.5939  -17.8030   23.5637 C.ar    1  UNL1       -0.0222
     31 C         -11.5564  -19.0867   24.3390 C.ar    1  UNL1       -0.0043
     32 C         -10.4024  -19.3778   25.2520 C.ar    1  UNL1       -0.0003
     33 C          -9.2861  -18.3854   25.3898 C.ar    1  UNL1       -0.0000
     34 C          -9.3237  -17.1018   24.6146 C.ar    1  UNL1       -0.0003
     35 C         -10.4777  -16.8106   23.7015 C.ar    1  UNL1       -0.0043
@<TRIPOS>BOND
     1    20    21    1
     2    21     7    1
     3     7     8   ar
     4     8     9   ar
     5     9    12    1
     6    12    13   ar
     7    13    14   ar
     8    14    15   ar
     9    15    18    1
    10    18    19    1
    11    15    16   ar
    12    16    17   ar
    13     9    10   ar
    14    10     1    1
    15     1     2   ar
    16     2     3   ar
    17     3     4   ar
    18     4     5   ar
    19     5    22    1
    20    22    23    2
    21    22    24   am
    22    24    26    1
    23    26    27    1
    24    27    28    1
    25    28    29    1
    26    29    30    1
    27    30    31   ar
    28    31    32   ar
    29    32    33   ar
    30    33    34   ar
    31    34    35   ar
    32     5     6   ar
    33    10    11   ar
    34    11     7   ar
    35    17    12   ar
    36     6     1   ar
    37    35    30   ar
    38    24    25    1
@<TRIPOS>MOLECULE
*****
 35 38 0 0 0
SMALL
GASTEIGER

@<TRIPOS>ATOM
      1 C          -5.5249  -18.8543   21.0559 C.ar    1  UNL1        0.0847
      2 C          -6.0587  -19.3000   19.7268 C.ar    1  UNL1        0.0192
      3 C          -7.5170  -19.6146   19.5715 C.ar    1  UNL1        0.0017
      4 C          -8.4417  -19.4836   20.7454 C.ar    1  UNL1        0.0046
      5 C          -7.9080  -19.0379   22.0744 C.ar    1  UNL1        0.0549
      6 C          -6.4496  -18.7233   22.2296 C.ar    1  UNL1        0.0237
      7 C          -1.6728  -18.4391   20.8229 C.ar    1  UNL1        0.1608
      8 N          -1.9717  -17.6722   22.0769 N.ar    1  UNL1       -0.2073
      9 C          -3.4511  -17.7344   22.3168 C.ar    1  UNL1        0.2012
     10 N          -4.0665  -18.5397   21.2111 N.ar    1  UNL1       -0.2083
     11 N          -2.9675  -18.9753   20.2878 N.ar    1  UNL1       -0.1488
     12 C          -4.1860  -17.1022   23.4616 C.ar    1  UNL1        0.1992
     13 N          -5.1122  -15.9489   23.2128 N.ar    1  UNL1       -0.2192
     14 C          -5.8470  -15.3167   24.3575 C.ar    1  UNL1        0.1390
     15 C          -5.6557  -15.8379   25.7509 C.ar    1  UNL1        0.1769
     16 C          -4.7295  -16.9912   25.9997 C.ar    1  UNL1        0.1390
     17 N          -3.9946  -17.6234   24.8550 N.ar    1  UNL1       -0.2192
     18 O          -6.3906  -15.2057   26.8957 O.3     1  UNL1       -0.4683
     19 C          -7.7954  -15.6275   27.2096 C.3     1  UNL1        0.2526
     20 C           0.5603  -17.4503   19.9367 C.3     1  UNL1        0.0085
     21 C          -0.3173  -18.6354   20.2114 C.3     1  UNL1        0.0676
     22 C          -8.8326  -18.9068   23.2483 C.2     1  UNL1        0.2459
     23 O          -8.8419  -17.6444   24.0584 O.2     1  UNL1       -0.2701
     24 N          -9.7479  -20.0381   23.6120 N.am    1  UNL1       -0.3009
     25 H          -9.7418  -20.8666   23.0803 H       1  UNL1        0.1497
     26 C         -10.6725  -19.9070   24.7859 C.3     1  UNL1        0.0897
     27 C         -11.4808  -18.6565   24.9678 C.3     1  UNL1        0.0216
     28 C         -12.9543  -18.6685   24.6873 C.3     1  UNL1        0.0064
     29 C         -13.5046  -17.8836   23.5336 C.3     1  UNL1        0.0264
     30 C         -12.6018  -17.4699   22.4093 C.ar    1  UNL1       -0.0222
     31 C         -12.3644  -18.4004   21.2569 C.ar    1  UNL1       -0.0043
     32 C         -11.4617  -17.9867   20.1327 C.ar    1  UNL1       -0.0003
     33 C         -10.7963  -16.6427   20.1609 C.ar    1  UNL1       -0.0000
     34 C         -11.0336  -15.7123   21.3133 C.ar    1  UNL1       -0.0003
     35 C         -11.9364  -16.1259   22.4375 C.ar    1  UNL1       -0.0043
@<TRIPOS>BOND
     1    20    21    1
     2    21     7    1
     3     7     8   ar
     4     8     9   ar
     5     9    12    1
     6    12    13   ar
     7    13    14   ar
     8    14    15   ar
     9    15    18    1
    10    18    19    1
    11    15    16   ar
    12    16    17   ar
    13     9    10   ar
    14    10     1    1
    15     1     2   ar
    16     2     3   ar
    17     3     4   ar
    18     4     5   ar
    19     5    22    1
    20    22    23    2
    21    22    24   am
    22    24    26    1
    23    26    27    1
    24    27    28    1
    25    28    29    1
    26    29    30    1
    27    30    31   ar
    28    31    32   ar
    29    32    33   ar
    30    33    34   ar
    31    34    35   ar
    32     5     6   ar
    33    10    11   ar
    34    11     7   ar
    35    17    12   ar
    36     6     1   ar
    37    35    30   ar
    38    24    25    1
@<TRIPOS>MOLECULE
*****
 35 38 0 0 0
SMALL
GASTEIGER

@<TRIPOS>ATOM
      1 C           5.0516   -2.5677   23.7650 C.ar    1  UNL1        0.0847
      2 C           4.1687   -2.0747   22.6571 C.ar    1  UNL1        0.0192
      3 C           3.1316   -1.0271   22.9345 C.ar    1  UNL1        0.0017
      4 C           2.9774   -0.4725   24.3197 C.ar    1  UNL1        0.0046
      5 C           3.8603   -0.9655   25.4275 C.ar    1  UNL1        0.0549
      6 C           4.8974   -2.0131   25.1501 C.ar    1  UNL1        0.0237
      7 C           7.6948   -5.4101   23.7882 C.ar    1  UNL1        0.1608
      8 N           7.6746   -5.0448   22.3335 N.ar    1  UNL1       -0.2073
      9 C           6.6820   -3.9356   22.1477 C.ar    1  UNL1        0.2012
     10 N           6.0887   -3.6153   23.4876 N.ar    1  UNL1       -0.2083
     11 N           6.7146   -4.5265   24.5015 N.ar    1  UNL1       -0.1488
     12 C           6.3424   -3.2645   20.8498 C.ar    1  UNL1        0.1992
     13 N           5.3984   -3.9244   19.8889 N.ar    1  UNL1       -0.2192
     14 C           5.0589   -3.2533   18.5911 C.ar    1  UNL1        0.1390
     15 C           5.6632   -1.9224   18.2543 C.ar    1  UNL1        0.1769
     16 C           6.6072   -1.2625   19.2153 C.ar    1  UNL1        0.1390
     17 N           6.9468   -1.9336   20.5130 N.ar    1  UNL1       -0.2192
     18 O           5.3236   -1.2513   16.9564 O.3     1  UNL1       -0.4683
     19 C           3.9155   -0.8112   16.6856 C.3     1  UNL1        0.2526
     20 C           9.2337   -7.4907   23.5590 C.3     1  UNL1        0.0085
     21 C           8.5456   -6.4722   24.4188 C.3     1  UNL1        0.0676
     22 C           3.7062   -0.4110   26.8127 C.2     1  UNL1        0.2459
     23 O           4.5929    0.7066   27.2761 O.2     1  UNL1       -0.2701
     24 N           2.6654   -0.9741   27.7345 N.am    1  UNL1       -0.3009
     25 H           2.0835   -1.7077   27.4303 H       1  UNL1        0.1497
     26 C           2.5113   -0.4196   29.1197 C.3     1  UNL1        0.0897
     27 C           1.1820    0.1072   29.5730 C.3     1  UNL1        0.0216
     28 C          -0.0520   -0.1805   28.7702 C.3     1  UNL1        0.0064
     29 C          -0.9984    0.9309   28.4251 C.3     1  UNL1        0.0264
     30 C          -0.8914    1.6222   27.0982 C.ar    1  UNL1       -0.0222
     31 C          -1.7392    2.8255   26.8090 C.ar    1  UNL1       -0.0043
     32 C          -1.6323    3.5168   25.4821 C.ar    1  UNL1       -0.0003
     33 C          -0.6776    3.0049   24.4445 C.ar    1  UNL1       -0.0000
     34 C           0.1701    1.8017   24.7337 C.ar    1  UNL1       -0.0003
     35 C           0.0632    1.1103   26.0606 C.ar    1  UNL1       -0.0043
@<TRIPOS>BOND
     1    20    21    1
     2    21     7    1
     3     7     8   ar
     4     8     9   ar
     5     9    12    1
     6    12    13   ar
     7    13    14   ar
     8    14    15   ar
     9    15    18    1
    10    18    19    1
    11    15    16   ar
    12    16    17   ar
    13     9    10   ar
    14    10     1    1
    15     1     2   ar
    16     2     3   ar
    17     3     4   ar
    18     4     5   ar
    19     5    22    1
    20    22    23    2
    21    22    24   am
    22    24    26    1
    23    26    27    1
    24    27    28    1
    25    28    29    1
    26    29    30    1
    27    30    31   ar
    28    31    32   ar
    29    32    33   ar
    30    33    34   ar
    31    34    35   ar
    32     5     6   ar
    33    10    11   ar
    34    11     7   ar
    35    17    12   ar
    36     6     1   ar
    37    35    30   ar
    38    24    25    1
@<TRIPOS>MOLECULE
*****
 35 38 0 0 0
SMALL
GASTEIGER

@<TRIPOS>ATOM
      1 C           3.3145    2.3192   31.9127 C.ar    1  UNL1        0.0847
      2 C           4.6255    2.8194   31.3822 C.ar    1  UNL1        0.0192
      3 C           5.5039    3.6784   32.2427 C.ar    1  UNL1        0.0017
      4 C           5.0716    4.0372   33.6335 C.ar    1  UNL1        0.0046
      5 C           3.7607    3.5369   34.1639 C.ar    1  UNL1        0.0549
      6 C           2.8822    2.6780   33.3034 C.ar    1  UNL1        0.0237
      7 C           0.6114    0.7134   29.6366 C.ar    1  UNL1        0.1608
      8 N           1.5568   -0.4367   29.8195 N.ar    1  UNL1       -0.2073
      9 C           2.6845    0.0249   30.6944 C.ar    1  UNL1        0.2012
     10 N           2.4360    1.4602   31.0522 N.ar    1  UNL1       -0.2083
     11 N           1.1548    1.8858   30.3985 N.ar    1  UNL1       -0.1488
     12 C           3.8551   -0.8036   31.1342 C.ar    1  UNL1        0.1992
     13 N           5.1401   -0.7558   30.3619 N.ar    1  UNL1       -0.2192
     14 C           6.3107   -1.5843   30.8017 C.ar    1  UNL1        0.1390
     15 C           6.1962   -2.4604   32.0139 C.ar    1  UNL1        0.1769
     16 C           4.9113   -2.5081   32.7862 C.ar    1  UNL1        0.1390
     17 N           3.7407   -1.6797   32.3463 N.ar    1  UNL1       -0.2192
     18 O           7.3669   -3.2888   32.4537 O.3     1  UNL1       -0.4683
     19 C           8.7449   -2.6965   32.4597 C.3     1  UNL1        0.2526
     20 C          -1.5029   -0.5424   28.7984 C.3     1  UNL1        0.0085
     21 C          -0.6550    0.6945   28.8330 C.3     1  UNL1        0.0676
     22 C           3.3283    3.8957   35.5547 C.2     1  UNL1        0.2459
     23 O           4.1805    4.7995   36.3954 O.2     1  UNL1       -0.2701
     24 N           2.0436    3.3506   36.1048 N.am    1  UNL1       -0.3009
     25 H           1.4843    2.7574   35.5530 H       1  UNL1        0.1497
     26 C           1.6112    3.7093   37.4956 C.3     1  UNL1        0.0897
     27 C           1.7746    2.7192   38.6106 C.3     1  UNL1        0.0216
     28 C           3.1279    2.1476   38.9135 C.3     1  UNL1        0.0064
     29 C           3.5983    0.9149   38.1999 C.3     1  UNL1        0.0264
     30 C           4.7146    1.0059   37.2022 C.ar    1  UNL1       -0.0222
     31 C           4.6182    0.2683   35.8996 C.ar    1  UNL1       -0.0043
     32 C           5.7346    0.3593   34.9019 C.ar    1  UNL1       -0.0003
     33 C           6.9473    1.1878   35.2067 C.ar    1  UNL1       -0.0000
     34 C           7.0437    1.9253   36.5092 C.ar    1  UNL1       -0.0003
     35 C           5.9273    1.8344   37.5070 C.ar    1  UNL1       -0.0043
@<TRIPOS>BOND
     1    20    21    1
     2    21     7    1
     3     7     8   ar
     4     8     9   ar
     5     9    12    1
     6    12    13   ar
     7    13    14   ar
     8    14    15   ar
     9    15    18    1
    10    18    19    1
    11    15    16   ar
    12    16    17   ar
    13     9    10   ar
    14    10     1    1
    15     1     2   ar
    16     2     3   ar
    17     3     4   ar
    18     4     5   ar
    19     5    22    1
    20    22    23    2
    21    22    24   am
    22    24    26    1
    23    26    27    1
    24    27    28    1
    25    28    29    1
    26    29    30    1
    27    30    31   ar
    28    31    32   ar
    29    32    33   ar
    30    33    34   ar
    31    34    35   ar
    32     5     6   ar
    33    10    11   ar
    34    11     7   ar
    35    17    12   ar
    36     6     1   ar
    37    35    30   ar
    38    24    25    1
@<TRIPOS>MOLECULE
*****
 35 38 0 0 0
SMALL
GASTEIGER

@<TRIPOS>ATOM
      1 C          -4.1809  -19.1415   20.6066 C.ar    1  UNL1        0.0847
      2 C          -4.0983  -20.6078   20.3011 C.ar    1  UNL1        0.0192
      3 C          -5.3538  -21.4167   20.1618 C.ar    1  UNL1        0.0017
      4 C          -6.6919  -20.7595   20.3281 C.ar    1  UNL1        0.0046
      5 C          -6.7744  -19.2933   20.6336 C.ar    1  UNL1        0.0549
      6 C          -5.5190  -18.4844   20.7729 C.ar    1  UNL1        0.0237
      7 C          -0.6905  -17.4586   20.3829 C.ar    1  UNL1        0.1608
      8 N          -1.2964  -16.7170   21.5374 N.ar    1  UNL1       -0.2073
      9 C          -2.6777  -17.2571   21.7617 C.ar    1  UNL1        0.2012
     10 N          -2.9255  -18.3326   20.7459 N.ar    1  UNL1       -0.2083
     11 N          -1.6973  -18.4572   19.8937 N.ar    1  UNL1       -0.1488
     12 C          -3.6419  -16.8017   22.8167 C.ar    1  UNL1        0.1992
     13 N          -3.8990  -17.6609   24.0190 N.ar    1  UNL1       -0.2192
     14 C          -4.8632  -17.2055   25.0739 C.ar    1  UNL1        0.1390
     15 C          -5.5702  -15.8908   24.9265 C.ar    1  UNL1        0.1769
     16 C          -5.3131  -15.0315   23.7243 C.ar    1  UNL1        0.1390
     17 N          -4.3489  -15.4870   22.6693 N.ar    1  UNL1       -0.2192
     18 O          -6.5344  -15.4353   25.9815 O.3     1  UNL1       -0.4683
     19 C          -7.9421  -15.9534   25.9850 C.3     1  UNL1        0.2526
     20 C           1.8927  -17.5530   20.6445 C.3     1  UNL1        0.0085
     21 C           0.6814  -17.2401   19.8170 C.3     1  UNL1        0.0676
     22 C          -8.1125  -18.6360   20.7999 C.2     1  UNL1        0.2459
     23 O          -8.2158  -17.3105   21.4944 O.2     1  UNL1       -0.2701
     24 N          -9.3471  -19.3042   20.2716 N.am    1  UNL1       -0.3009
     25 H          -9.2793  -20.1741   19.8157 H       1  UNL1        0.1497
     26 C         -10.6852  -18.6469   20.4379 C.3     1  UNL1        0.0897
     27 C         -11.0364  -17.4425   19.6155 C.3     1  UNL1        0.0216
     28 C         -11.5535  -16.2030   20.2836 C.3     1  UNL1        0.0064
     29 C         -11.2534  -15.9507   21.7315 C.3     1  UNL1        0.0264
     30 C         -11.7576  -16.8993   22.7783 C.ar    1  UNL1       -0.0222
     31 C         -13.2325  -17.1147   22.9474 C.ar    1  UNL1       -0.0043
     32 C         -13.7366  -18.0633   23.9943 C.ar    1  UNL1       -0.0003
     33 C         -12.7661  -18.7965   24.8720 C.ar    1  UNL1       -0.0000
     34 C         -11.2913  -18.5811   24.7029 C.ar    1  UNL1       -0.0003
     35 C         -10.7870  -17.6325   23.6561 C.ar    1  UNL1       -0.0043
@<TRIPOS>BOND
     1    20    21    1
     2    21     7    1
     3     7     8   ar
     4     8     9   ar
     5     9    12    1
     6    12    13   ar
     7    13    14   ar
     8    14    15   ar
     9    15    18    1
    10    18    19    1
    11    15    16   ar
    12    16    17   ar
    13     9    10   ar
    14    10     1    1
    15     1     2   ar
    16     2     3   ar
    17     3     4   ar
    18     4     5   ar
    19     5    22    1
    20    22    23    2
    21    22    24   am
    22    24    26    1
    23    26    27    1
    24    27    28    1
    25    28    29    1
    26    29    30    1
    27    30    31   ar
    28    31    32   ar
    29    32    33   ar
    30    33    34   ar
    31    34    35   ar
    32     5     6   ar
    33    10    11   ar
    34    11     7   ar
    35    17    12   ar
    36     6     1   ar
    37    35    30   ar
    38    24    25    1
@<TRIPOS>MOLECULE
*****
 35 38 0 0 0
SMALL
GASTEIGER

@<TRIPOS>ATOM
      1 C           0.0355    3.4719   23.2536 C.ar    1  UNL1        0.0847
      2 C           0.6540    4.8008   23.5725 C.ar    1  UNL1        0.0192
      3 C           1.9085    4.8667   24.3922 C.ar    1  UNL1        0.0017
      4 C           2.5446    3.6039   24.8929 C.ar    1  UNL1        0.0046
      5 C           1.9261    2.2751   24.5739 C.ar    1  UNL1        0.0549
      6 C           0.6716    2.2092   23.7543 C.ar    1  UNL1        0.0237
      7 C          -3.5191    3.6778   21.7082 C.ar    1  UNL1        0.1608
      8 N          -2.7802    2.9314   20.6373 N.ar    1  UNL1       -0.2073
      9 C          -1.3587    2.7635   21.0858 C.ar    1  UNL1        0.2012
     10 N          -1.2190    3.4060   22.4340 N.ar    1  UNL1       -0.2083
     11 N          -2.5542    3.9711   22.8187 N.ar    1  UNL1       -0.1488
     12 C          -0.2683    2.0740   20.3204 C.ar    1  UNL1        0.1992
     13 N           0.6343    2.8668   19.4222 N.ar    1  UNL1       -0.2192
     14 C           1.7246    2.1773   18.6569 C.ar    1  UNL1        0.1390
     15 C           1.9124    0.6950   18.7899 C.ar    1  UNL1        0.1769
     16 C           1.0099   -0.0977   19.6881 C.ar    1  UNL1        0.1390
     17 N          -0.0805    0.5917   20.4534 N.ar    1  UNL1       -0.2192
     18 O           3.0028    0.0055   18.0245 O.3     1  UNL1       -0.4683
     19 C           3.6835   -1.1971   18.6078 C.3     1  UNL1        0.2526
     20 C          -5.8682    3.6981   22.8179 C.3     1  UNL1        0.0085
     21 C          -4.9683    4.0632   21.6747 C.3     1  UNL1        0.0676
     22 C           2.5621    1.0122   25.0746 C.2     1  UNL1        0.2459
     23 O           2.3553   -0.2761   24.3347 O.2     1  UNL1       -0.2701
     24 N           3.4049    1.0377   26.3151 N.am    1  UNL1       -0.3009
     25 H           3.5407    1.8832   26.8007 H       1  UNL1        0.1497
     26 C           4.0409   -0.2252   26.8158 C.3     1  UNL1        0.0897
     27 C           3.3353   -1.0660   27.8383 C.3     1  UNL1        0.0216
     28 C           2.5293   -0.4111   28.9206 C.3     1  UNL1        0.0064
     29 C           1.0552   -0.2035   28.7367 C.3     1  UNL1        0.0264
     30 C           0.5390    1.1174   28.2481 C.ar    1  UNL1       -0.0222
     31 C           1.1912    2.3907   28.6993 C.ar    1  UNL1       -0.0043
     32 C           0.6750    3.7117   28.2107 C.ar    1  UNL1       -0.0003
     33 C          -0.4932    3.7593   27.2710 C.ar    1  UNL1       -0.0000
     34 C          -1.1453    2.4860   26.8199 C.ar    1  UNL1       -0.0003
     35 C          -0.6292    1.1650   27.3084 C.ar    1  UNL1       -0.0043
@<TRIPOS>BOND
     1    20    21    1
     2    21     7    1
     3     7     8   ar
     4     8     9   ar
     5     9    12    1
     6    12    13   ar
     7    13    14   ar
     8    14    15   ar
     9    15    18    1
    10    18    19    1
    11    15    16   ar
    12    16    17   ar
    13     9    10   ar
    14    10     1    1
    15     1     2   ar
    16     2     3   ar
    17     3     4   ar
    18     4     5   ar
    19     5    22    1
    20    22    23    2
    21    22    24   am
    22    24    26    1
    23    26    27    1
    24    27    28    1
    25    28    29    1
    26    29    30    1
    27    30    31   ar
    28    31    32   ar
    29    32    33   ar
    30    33    34   ar
    31    34    35   ar
    32     5     6   ar
    33    10    11   ar
    34    11     7   ar
    35    17    12   ar
    36     6     1   ar
    37    35    30   ar
    38    24    25    1
@<TRIPOS>MOLECULE
*****
 35 38 0 0 0
SMALL
GASTEIGER

@<TRIPOS>ATOM
      1 C           1.9782    1.9037   23.5631 C.ar    1  UNL1        0.0847
      2 C           2.3895    3.1220   22.7906 C.ar    1  UNL1        0.0192
      3 C           3.5341    3.0461   21.8240 C.ar    1  UNL1        0.0017
      4 C           4.2674    1.7520   21.6300 C.ar    1  UNL1        0.0046
      5 C           3.8561    0.5338   22.4026 C.ar    1  UNL1        0.0549
      6 C           2.7115    0.6097   23.3691 C.ar    1  UNL1        0.0237
      7 C          -0.5164    1.7386   26.5321 C.ar    1  UNL1        0.1608
      8 N          -1.3389    2.4543   25.5019 N.ar    1  UNL1       -0.2073
      9 C          -0.5045    2.6033   24.2643 C.ar    1  UNL1        0.2012
     10 N           0.8337    1.9797   24.5296 N.ar    1  UNL1       -0.2083
     11 N           0.8263    1.4453   25.9312 N.ar    1  UNL1       -0.1488
     12 C          -0.9331    3.2605   22.9858 C.ar    1  UNL1        0.1992
     13 N          -1.0042    2.4610   21.7187 N.ar    1  UNL1       -0.2192
     14 C          -1.4328    3.1183   20.4403 C.ar    1  UNL1        0.1390
     15 C          -1.7902    4.5750   20.4291 C.ar    1  UNL1        0.1769
     16 C          -1.7191    5.3745   21.6962 C.ar    1  UNL1        0.1390
     17 N          -1.2906    4.7173   22.9746 N.ar    1  UNL1       -0.2192
     18 O          -2.2188    5.2322   19.1506 O.3     1  UNL1       -0.4683
     19 C          -1.2228    5.9959   18.3293 C.3     1  UNL1        0.2526
     20 C          -0.9641   -0.0553   28.3573 C.3     1  UNL1        0.0085
     21 C          -0.9589    1.3794   27.9196 C.3     1  UNL1        0.0676
     22 C           4.5894   -0.7603   22.2086 C.2     1  UNL1        0.2459
     23 O           5.9889   -0.7557   21.6689 O.2     1  UNL1       -0.2701
     24 N           3.9231   -2.0589   22.5544 N.am    1  UNL1       -0.3009
     25 H           3.0046   -2.0619   22.9086 H       1  UNL1        0.1497
     26 C           4.6564   -3.3531   22.3604 C.3     1  UNL1        0.0897
     27 C           4.8372   -3.9131   20.9806 C.3     1  UNL1        0.0216
     28 C           3.8148   -3.6354   19.9187 C.3     1  UNL1        0.0064
     29 C           4.0300   -2.5148   18.9451 C.3     1  UNL1        0.0264
     30 C           3.1696   -1.2878   19.0117 C.ar    1  UNL1       -0.0222
     31 C           3.5538   -0.0598   18.2408 C.ar    1  UNL1       -0.0043
     32 C           2.6935    1.1672   18.3074 C.ar    1  UNL1       -0.0003
     33 C           1.4491    1.1661   19.1449 C.ar    1  UNL1       -0.0000
     34 C           1.0650   -0.0619   19.9159 C.ar    1  UNL1       -0.0003
     35 C           1.9253   -1.2889   19.8493 C.ar    1  UNL1       -0.0043
@<TRIPOS>BOND
     1    20    21    1
     2    21     7    1
     3     7     8   ar
     4     8     9   ar
     5     9    12    1
     6    12    13   ar
     7    13    14   ar
     8    14    15   ar
     9    15    18    1
    10    18    19    1
    11    15    16   ar
    12    16    17   ar
    13     9    10   ar
    14    10     1    1
    15     1     2   ar
    16     2     3   ar
    17     3     4   ar
    18     4     5   ar
    19     5    22    1
    20    22    23    2
    21    22    24   am
    22    24    26    1
    23    26    27    1
    24    27    28    1
    25    28    29    1
    26    29    30    1
    27    30    31   ar
    28    31    32   ar
    29    32    33   ar
    30    33    34   ar
    31    34    35   ar
    32     5     6   ar
    33    10    11   ar
    34    11     7   ar
    35    17    12   ar
    36     6     1   ar
    37    35    30   ar
    38    24    25    1
@<TRIPOS>MOLECULE
*****
 35 38 0 0 0
SMALL
GASTEIGER

@<TRIPOS>ATOM
      1 C           5.2440   -3.4484   21.4107 C.ar    1  UNL1        0.0847
      2 C           5.4150   -4.2609   20.1614 C.ar    1  UNL1        0.0192
      3 C           4.6254   -3.9216   18.9321 C.ar    1  UNL1        0.0017
      4 C           3.6647   -2.7697   18.9519 C.ar    1  UNL1        0.0046
      5 C           3.4936   -1.9572   20.2011 C.ar    1  UNL1        0.0549
      6 C           4.2833   -2.2966   21.4305 C.ar    1  UNL1        0.0237
      7 C           7.4916   -4.9385   24.2023 C.ar    1  UNL1        0.1608
      8 N           7.0060   -3.6815   24.8612 N.ar    1  UNL1       -0.2073
      9 C           6.1049   -2.9703   23.8957 C.ar    1  UNL1        0.2012
     10 N           6.0336   -3.7877   22.6400 N.ar    1  UNL1       -0.2083
     11 N           6.8906   -5.0041   22.8295 N.ar    1  UNL1       -0.1488
     12 C           5.3990   -1.6699   24.1425 C.ar    1  UNL1        0.1992
     13 N           6.0137   -0.3830   23.6780 N.ar    1  UNL1       -0.2192
     14 C           5.3078    0.9173   23.9248 C.ar    1  UNL1        0.1390
     15 C           3.9873    0.9306   24.6363 C.ar    1  UNL1        0.1769
     16 C           3.3727   -0.3564   25.1008 C.ar    1  UNL1        0.1390
     17 N           4.0785   -1.6566   24.8539 N.ar    1  UNL1       -0.2192
     18 O           3.2814    2.2310   24.8831 O.3     1  UNL1       -0.4683
     19 C           2.0112    2.5458   24.1501 C.3     1  UNL1        0.2526
     20 C           8.4776   -7.3418   24.2488 C.3     1  UNL1        0.0085
     21 C           8.4159   -5.9519   24.8095 C.3     1  UNL1        0.0676
     22 C           2.5330   -0.8054   20.2210 C.2     1  UNL1        0.2459
     23 O           2.1650   -0.1581   21.5232 O.2     1  UNL1       -0.2701
     24 N           1.9403   -0.3008   18.9388 N.am    1  UNL1       -0.3009
     25 H           2.1818   -0.7257   18.0842 H       1  UNL1        0.1497
     26 C           0.9796    0.8510   18.9587 C.3     1  UNL1        0.0897
     27 C           1.4495    2.2260   18.5861 C.3     1  UNL1        0.0216
     28 C           2.7519    2.7438   19.1204 C.3     1  UNL1        0.0064
     29 C           3.9972    2.6406   18.2906 C.3     1  UNL1        0.0264
     30 C           4.9563    1.5093   18.5149 C.ar    1  UNL1       -0.0222
     31 C           5.2632    0.5542   17.3997 C.ar    1  UNL1       -0.0043
     32 C           6.2223   -0.5772   17.6239 C.ar    1  UNL1       -0.0003
     33 C           6.8745   -0.7533   18.9632 C.ar    1  UNL1       -0.0000
     34 C           6.5675    0.2018   20.0783 C.ar    1  UNL1       -0.0003
     35 C           5.6084    1.3332   19.8541 C.ar    1  UNL1       -0.0043
@<TRIPOS>BOND
     1    20    21    1
     2    21     7    1
     3     7     8   ar
     4     8     9   ar
     5     9    12    1
     6    12    13   ar
     7    13    14   ar
     8    14    15   ar
     9    15    18    1
    10    18    19    1
    11    15    16   ar
    12    16    17   ar
    13     9    10   ar
    14    10     1    1
    15     1     2   ar
    16     2     3   ar
    17     3     4   ar
    18     4     5   ar
    19     5    22    1
    20    22    23    2
    21    22    24   am
    22    24    26    1
    23    26    27    1
    24    27    28    1
    25    28    29    1
    26    29    30    1
    27    30    31   ar
    28    31    32   ar
    29    32    33   ar
    30    33    34   ar
    31    34    35   ar
    32     5     6   ar
    33    10    11   ar
    34    11     7   ar
    35    17    12   ar
    36     6     1   ar
    37    35    30   ar
    38    24    25    1
@<TRIPOS>MOLECULE
*****
 35 38 0 0 0
SMALL
GASTEIGER

@<TRIPOS>ATOM
      1 C          -0.7429    3.7301   24.2992 C.ar    1  UNL1        0.0847
      2 C          -0.0863    5.0586   24.5321 C.ar    1  UNL1        0.0192
      3 C          -0.9076    6.2341   24.9723 C.ar    1  UNL1        0.0017
      4 C          -2.3854    6.0811   25.1797 C.ar    1  UNL1        0.0046
      5 C          -3.0418    4.7527   24.9467 C.ar    1  UNL1        0.0549
      6 C          -2.2205    3.5772   24.5065 C.ar    1  UNL1        0.0237
      7 C           1.2582    0.9551   22.4661 C.ar    1  UNL1        0.1608
      8 N           1.4263    0.5367   23.8967 N.ar    1  UNL1       -0.2073
      9 C           0.6971    1.5253   24.7575 C.ar    1  UNL1        0.2012
     10 N           0.0784    2.5547   23.8589 N.ar    1  UNL1       -0.2083
     11 N           0.4252    2.2023   22.4428 N.ar    1  UNL1       -0.1488
     12 C           0.6032    1.4906   26.2542 C.ar    1  UNL1        0.1992
     13 N           1.7999    1.8383   27.0891 N.ar    1  UNL1       -0.2192
     14 C           1.7059    1.8036   28.5857 C.ar    1  UNL1        0.1390
     15 C           0.4153    1.4211   29.2475 C.ar    1  UNL1        0.1769
     16 C          -0.7814    1.0733   28.4126 C.ar    1  UNL1        0.1390
     17 N          -0.6874    1.1080   26.9160 N.ar    1  UNL1       -0.2192
     18 O           0.3214    1.3863   30.7442 O.3     1  UNL1       -0.4683
     19 C           0.5215    2.6435   31.5376 C.3     1  UNL1        0.2526
     20 C           0.9052   -0.4103   20.2841 C.3     1  UNL1        0.0085
     21 C           1.8239    0.2501   21.2690 C.3     1  UNL1        0.0676
     22 C          -4.5195    4.5996   25.1541 C.2     1  UNL1        0.2459
     23 O          -5.1040    3.2427   25.4130 O.2     1  UNL1       -0.2701
     24 N          -5.4127    5.8036   25.1025 N.am    1  UNL1       -0.3009
     25 H          -5.0291    6.6942   24.9325 H       1  UNL1        0.1497
     26 C          -6.8904    5.6505   25.3098 C.3     1  UNL1        0.0897
     27 C          -7.7570    5.1522   24.1913 C.3     1  UNL1        0.0216
     28 C          -7.3537    5.3913   22.7665 C.3     1  UNL1        0.0064
     29 C          -6.6505    4.3140   21.9952 C.3     1  UNL1        0.0264
     30 C          -5.1946    4.4573   21.6637 C.ar    1  UNL1       -0.0222
     31 C          -4.3768    3.2430   21.3368 C.ar    1  UNL1       -0.0043
     32 C          -2.9209    3.3863   21.0054 C.ar    1  UNL1       -0.0003
     33 C          -2.2828    4.7438   21.0009 C.ar    1  UNL1       -0.0000
     34 C          -3.1006    5.9580   21.3278 C.ar    1  UNL1       -0.0003
     35 C          -4.5565    5.8148   21.6592 C.ar    1  UNL1       -0.0043
@<TRIPOS>BOND
     1    20    21    1
     2    21     7    1
     3     7     8   ar
     4     8     9   ar
     5     9    12    1
     6    12    13   ar
     7    13    14   ar
     8    14    15   ar
     9    15    18    1
    10    18    19    1
    11    15    16   ar
    12    16    17   ar
    13     9    10   ar
    14    10     1    1
    15     1     2   ar
    16     2     3   ar
    17     3     4   ar
    18     4     5   ar
    19     5    22    1
    20    22    23    2
    21    22    24   am
    22    24    26    1
    23    26    27    1
    24    27    28    1
    25    28    29    1
    26    29    30    1
    27    30    31   ar
    28    31    32   ar
    29    32    33   ar
    30    33    34   ar
    31    34    35   ar
    32     5     6   ar
    33    10    11   ar
    34    11     7   ar
    35    17    12   ar
    36     6     1   ar
    37    35    30   ar
    38    24    25    1
