@<TRIPOS>MOLECULE
*****
 28 31 0 0 0
SMALL
GASTEIGER

@<TRIPOS>ATOM
      1 C           6.7241   -4.2921   29.4867 C.ar    1  UNL1        0.0515
      2 C           6.9127   -4.8697   30.8581 C.ar    1  UNL1        0.0160
      3 C           6.7400   -4.0004   32.0683 C.ar    1  UNL1        0.0175
      4 C           6.3787   -2.5535   31.9071 C.ar    1  UNL1        0.0718
      5 C           6.1902   -1.9759   30.5357 C.ar    1  UNL1        0.0730
      6 CL          5.8289   -0.5290   30.3744 Cl      1  UNL1       -0.0809
      7 C           6.3628   -2.8452   29.3255 C.ar    1  UNL1        0.0273
      8 N           6.2061   -1.6843   33.1173 N.am    1  UNL1       -0.2002
      9 C           5.0003   -1.6432   34.0086 C.2     1  UNL1        0.2590
     10 O           3.7555   -2.4643   33.8463 O.2     1  UNL1       -0.2691
     11 C           5.2579   -0.6370   35.0908 C.ar    1  UNL1        0.0617
     12 C           4.4259   -0.1747   36.2501 C.ar    1  UNL1        0.0254
     13 C           4.9588    0.8686   37.1869 C.ar    1  UNL1        0.0990
     14 N           6.3238    1.4494   36.9644 N.ar    1  UNL1       -0.2422
     15 C           7.1558    0.9871   35.8052 C.ar    1  UNL1        0.1035
     16 C           6.6228   -0.0561   34.8684 C.ar    1  UNL1        0.0778
     17 C           7.2088   -0.7034   33.6487 C.2     1  UNL1        0.2604
     18 O           8.5603   -0.4196   33.0631 O.2     1  UNL1       -0.2691
     19 C           8.1929   -5.1473   27.5218 C.2     1  UNL1        0.2839
     20 O           9.3165   -4.2640   27.9772 O.2     1  UNL1       -0.2665
     21 N           6.8968   -5.1613   28.2765 N.am    1  UNL1       -0.2778
     22 H           6.1593   -5.7411   27.9776 H       1  UNL1        0.1553
     23 C           6.9343   -4.5884   24.5632 C.3     1  UNL1        0.0345
     24 C           7.7870   -5.7596   24.9517 C.ar    1  UNL1        0.0204
     25 C           8.2111   -6.8797   24.0484 C.ar    1  UNL1        0.0396
     26 C           9.0516   -7.8288   24.8501 C.ar    1  UNL1        0.1795
     27 O           9.1471   -7.2953   26.2488 O.2     1  UNL1       -0.4461
     28 C           8.3656   -6.0166   26.3116 C.ar    1  UNL1        0.1948
@<TRIPOS>BOND
     1    23    24    1
     2    24    25   ar
     3    25    26   ar
     4    26    27   ar
     5    27    28   ar
     6    28    19    1
     7    19    20    2
     8    19    21   am
     9    21     1    1
    10     1     2   ar
    11     2     3   ar
    12     3     4   ar
    13     4     8    1
    14     8     9   am
    15     9    10    2
    16     9    11    1
    17    11    12   ar
    18    12    13   ar
    19    13    14   ar
    20    14    15   ar
    21    15    16   ar
    22    16    17    1
    23    17    18    2
    24     4     5   ar
    25     5     6    1
    26     5     7   ar
    27    28    24   ar
    28     7     1   ar
    29    17     8   am
    30    16    11   ar
    31    21    22    1
@<TRIPOS>MOLECULE
*****
 28 31 0 0 0
SMALL
GASTEIGER

@<TRIPOS>ATOM
      1 C           6.6296   -4.0255   29.0294 C.ar    1  UNL1        0.0515
      2 C           6.8511   -4.7042   30.3485 C.ar    1  UNL1        0.0160
      3 C           6.7223   -3.9251   31.6238 C.ar    1  UNL1        0.0175
      4 C           6.3720   -2.4673   31.5800 C.ar    1  UNL1        0.0718
      5 C           6.1505   -1.7885   30.2608 C.ar    1  UNL1        0.0730
      6 CL          5.8002   -0.3306   30.2169 Cl      1  UNL1       -0.0809
      7 C           6.2793   -2.5676   28.9855 C.ar    1  UNL1        0.0273
      8 N           6.2432   -1.6881   32.8553 N.am    1  UNL1       -0.2002
      9 C           7.2773   -0.7695   33.4356 C.2     1  UNL1        0.2590
     10 O           8.6218   -0.4688   32.8425 O.2     1  UNL1       -0.2691
     11 C           6.7308   -0.2045   34.7131 C.ar    1  UNL1        0.0617
     12 C           7.3052    0.7549   35.7129 C.ar    1  UNL1        0.0254
     13 C           6.5077    1.1449   36.9219 C.ar    1  UNL1        0.0990
     14 N           5.1359    0.5755   37.1312 N.ar    1  UNL1       -0.2422
     15 C           4.5615   -0.3839   36.1315 C.ar    1  UNL1        0.1035
     16 C           5.3590   -0.7739   34.9224 C.ar    1  UNL1        0.0778
     17 C           5.0576   -1.6908   33.7742 C.2     1  UNL1        0.2604
     18 O           3.7927   -2.4731   33.5791 O.2     1  UNL1       -0.2691
     19 C           8.1013   -4.9640   27.1049 C.2     1  UNL1        0.2839
     20 O           9.3153   -4.3443   27.7311 O.2     1  UNL1       -0.2665
     21 N           6.7585   -4.8046   27.7541 N.am    1  UNL1       -0.2778
     22 H           5.9616   -5.2113   27.3431 H       1  UNL1        0.1553
     23 C           7.8939   -8.2073   26.8092 C.3     1  UNL1        0.0345
     24 C           8.1348   -7.2340   25.6938 C.ar    1  UNL1        0.0204
     25 C           8.3226   -7.5804   24.2464 C.ar    1  UNL1        0.0396
     26 C           8.5340   -6.3037   23.4878 C.ar    1  UNL1        0.1795
     27 O           8.4768   -5.1683   24.4663 O.2     1  UNL1       -0.4461
     28 C           8.2301   -5.7431   25.8296 C.ar    1  UNL1        0.1948
@<TRIPOS>BOND
     1    23    24    1
     2    24    25   ar
     3    25    26   ar
     4    26    27   ar
     5    27    28   ar
     6    28    19    1
     7    19    20    2
     8    19    21   am
     9    21     1    1
    10     1     2   ar
    11     2     3   ar
    12     3     4   ar
    13     4     8    1
    14     8     9   am
    15     9    10    2
    16     9    11    1
    17    11    12   ar
    18    12    13   ar
    19    13    14   ar
    20    14    15   ar
    21    15    16   ar
    22    16    17    1
    23    17    18    2
    24     4     5   ar
    25     5     6    1
    26     5     7   ar
    27    28    24   ar
    28     7     1   ar
    29    17     8   am
    30    16    11   ar
    31    21    22    1
@<TRIPOS>MOLECULE
*****
 28 31 0 0 0
SMALL
GASTEIGER

@<TRIPOS>ATOM
      1 C           6.2596   -2.3889   31.9386 C.ar    1  UNL1        0.0515
      2 C           4.9359   -2.6773   32.5823 C.ar    1  UNL1        0.0160
      3 C           4.4304   -1.7956   33.6855 C.ar    1  UNL1        0.0175
      4 C           5.2486   -0.6254   34.1450 C.ar    1  UNL1        0.0718
      5 C           6.5724   -0.3370   33.5012 C.ar    1  UNL1        0.0730
      6 CL          7.3907    0.8332   33.9607 Cl      1  UNL1       -0.0809
      7 C           7.0779   -1.2187   32.3980 C.ar    1  UNL1        0.0273
      8 N           4.7432    0.2563   35.2482 N.am    1  UNL1       -0.2002
      9 C           3.6338    1.2597   35.1368 C.2     1  UNL1        0.2590
     10 O           2.8351    1.5576   33.9025 O.2     1  UNL1       -0.2691
     11 C           3.4633    1.9130   36.4762 C.ar    1  UNL1        0.0617
     12 C           2.5235    2.9764   36.9619 C.ar    1  UNL1        0.0254
     13 C           2.5878    3.4401   38.3870 C.ar    1  UNL1        0.0990
     14 N           3.5918    2.8405   39.3263 N.ar    1  UNL1       -0.2422
     15 C           4.5316    1.7770   38.8406 C.ar    1  UNL1        0.1035
     16 C           4.4673    1.3133   37.4155 C.ar    1  UNL1        0.0778
     17 C           5.2583    0.2894   36.6566 C.2     1  UNL1        0.2604
     18 O           6.3694   -0.5533   37.2090 O.2     1  UNL1       -0.2691
     19 C           6.9208   -4.7447   31.0651 C.2     1  UNL1        0.2839
     20 O           6.5710   -5.3371   32.3981 O.2     1  UNL1       -0.2665
     21 N           6.7651   -3.2706   30.8354 N.am    1  UNL1       -0.2778
     22 H           6.9946   -2.8818   29.9605 H       1  UNL1        0.1553
     23 C           9.5183   -6.7139   31.2210 C.3     1  UNL1        0.0345
     24 C           8.6203   -6.5316   30.0336 C.ar    1  UNL1        0.0204
     25 C           8.7584   -7.2224   28.7093 C.ar    1  UNL1        0.0396
     26 C           7.6498   -6.7441   27.8191 C.ar    1  UNL1        0.1795
     27 O           6.8265   -5.7578   28.5933 O.2     1  UNL1       -0.4461
     28 C           7.4262   -5.6264   29.9619 C.ar    1  UNL1        0.1948
@<TRIPOS>BOND
     1    23    24    1
     2    24    25   ar
     3    25    26   ar
     4    26    27   ar
     5    27    28   ar
     6    28    19    1
     7    19    20    2
     8    19    21   am
     9    21     1    1
    10     1     2   ar
    11     2     3   ar
    12     3     4   ar
    13     4     8    1
    14     8     9   am
    15     9    10    2
    16     9    11    1
    17    11    12   ar
    18    12    13   ar
    19    13    14   ar
    20    14    15   ar
    21    15    16   ar
    22    16    17    1
    23    17    18    2
    24     4     5   ar
    25     5     6    1
    26     5     7   ar
    27    28    24   ar
    28     7     1   ar
    29    17     8   am
    30    16    11   ar
    31    21    22    1
@<TRIPOS>MOLECULE
*****
 28 31 0 0 0
SMALL
GASTEIGER

@<TRIPOS>ATOM
      1 C           5.1810   -0.9238   34.6249 C.ar    1  UNL1        0.0515
      2 C           4.2490   -1.8918   33.9584 C.ar    1  UNL1        0.0160
      3 C           4.6987   -2.6526   32.7464 C.ar    1  UNL1        0.0175
      4 C           6.0804   -2.4454   32.2008 C.ar    1  UNL1        0.0718
      5 C           7.0125   -1.4774   32.8672 C.ar    1  UNL1        0.0730
      6 CL          8.3944   -1.2701   32.3217 Cl      1  UNL1       -0.0809
      7 C           6.5628   -0.7166   34.0793 C.ar    1  UNL1        0.0273
      8 N           6.5301   -3.2062   30.9888 N.am    1  UNL1       -0.2002
      9 C           6.8467   -4.6714   30.9348 C.2     1  UNL1        0.2590
     10 O           6.7691   -5.6331   32.0833 O.2     1  UNL1       -0.2691
     11 C           7.2544   -5.0061   29.5306 C.ar    1  UNL1        0.0617
     12 C           7.6762   -6.2941   28.8879 C.ar    1  UNL1        0.0254
     13 C           8.0333   -6.3238   27.4314 C.ar    1  UNL1        0.0990
     14 N           7.9688   -5.0654   26.6176 N.ar    1  UNL1       -0.2422
     15 C           7.5470   -3.7774   27.2602 C.ar    1  UNL1        0.1035
     16 C           7.1899   -3.7477   28.7168 C.ar    1  UNL1        0.0778
     17 C           6.7422   -2.6353   29.6180 C.2     1  UNL1        0.2604
     18 O           6.5419   -1.2035   29.2185 O.2     1  UNL1       -0.2691
     19 C           3.9948    1.1339   35.6777 C.2     1  UNL1        0.2839
     20 O           3.7079    1.6701   34.3065 O.2     1  UNL1       -0.2665
     21 N           4.7313   -0.1631   35.8369 N.am    1  UNL1       -0.2778
     22 H           4.9196   -0.5150   36.7368 H       1  UNL1        0.1553
     23 C           5.9315    2.3611   37.9999 C.3     1  UNL1        0.0345
     24 C           4.4353    2.4588   37.9571 C.ar    1  UNL1        0.0204
     25 C           3.5666    3.1377   38.9742 C.ar    1  UNL1        0.0396
     26 C           2.1395    2.9932   38.5354 C.ar    1  UNL1        0.1795
     27 O           2.1262    2.2249   37.2472 O.2     1  UNL1       -0.4461
     28 C           3.5451    1.8947   36.8897 C.ar    1  UNL1        0.1948
@<TRIPOS>BOND
     1    23    24    1
     2    24    25   ar
     3    25    26   ar
     4    26    27   ar
     5    27    28   ar
     6    28    19    1
     7    19    20    2
     8    19    21   am
     9    21     1    1
    10     1     2   ar
    11     2     3   ar
    12     3     4   ar
    13     4     8    1
    14     8     9   am
    15     9    10    2
    16     9    11    1
    17    11    12   ar
    18    12    13   ar
    19    13    14   ar
    20    14    15   ar
    21    15    16   ar
    22    16    17    1
    23    17    18    2
    24     4     5   ar
    25     5     6    1
    26     5     7   ar
    27    28    24   ar
    28     7     1   ar
    29    17     8   am
    30    16    11   ar
    31    21    22    1
@<TRIPOS>MOLECULE
*****
 28 31 0 0 0
SMALL
GASTEIGER

@<TRIPOS>ATOM
      1 C          -1.7456    3.6070   21.5811 C.ar    1  UNL1        0.0515
      2 C          -0.7358    2.8538   22.3953 C.ar    1  UNL1        0.0160
      3 C           0.4198    2.1779   21.7186 C.ar    1  UNL1        0.0175
      4 C           0.5656    2.2553   20.2277 C.ar    1  UNL1        0.0718
      5 C          -0.4442    3.0085   19.4136 C.ar    1  UNL1        0.0730
      6 CL         -0.2985    3.0859   17.9226 Cl      1  UNL1       -0.0809
      7 C          -1.5998    3.6843   20.0902 C.ar    1  UNL1        0.0273
      8 N           1.7211    1.5795   19.5511 N.am    1  UNL1       -0.2002
      9 C           2.8792    2.2655   18.8890 C.2     1  UNL1        0.2590
     10 O           3.0849    3.7479   18.7874 O.2     1  UNL1       -0.2691
     11 C           3.7953    1.2090   18.3464 C.ar    1  UNL1        0.0617
     12 C           5.0920    1.2933   17.5970 C.ar    1  UNL1        0.0254
     13 C           5.7968    0.0385   17.1744 C.ar    1  UNL1        0.0990
     14 N           5.2050   -1.3005   17.5011 N.ar    1  UNL1       -0.2422
     15 C           3.9084   -1.3848   18.2505 C.ar    1  UNL1        0.1035
     16 C           3.2036   -0.1300   18.6731 C.ar    1  UNL1        0.0778
     17 C           1.9216    0.0990   19.4176 C.2     1  UNL1        0.2604
     18 O           1.0017   -0.9657   19.9375 O.2     1  UNL1       -0.2691
     19 C          -4.2761    3.6906   22.1637 C.2     1  UNL1        0.2839
     20 O          -4.4955    2.4226   21.3928 O.2     1  UNL1       -0.2665
     21 N          -2.9012    4.2828   22.2578 N.am    1  UNL1       -0.2778
     22 H          -2.7572    5.1150   22.7637 H       1  UNL1        0.1553
     23 C          -4.8369    3.7714   25.3775 C.3     1  UNL1        0.0345
     24 C          -5.6894    4.4036   24.3176 C.ar    1  UNL1        0.0204
     25 C          -6.9495    5.1839   24.5488 C.ar    1  UNL1        0.0396
     26 C          -7.4705    5.6290   23.2145 C.ar    1  UNL1        0.1795
     27 O          -6.5325    5.1238   22.1586 O.2     1  UNL1       -0.4461
     28 C          -5.4317    4.3665   22.8403 C.ar    1  UNL1        0.1948
@<TRIPOS>BOND
     1    23    24    1
     2    24    25   ar
     3    25    26   ar
     4    26    27   ar
     5    27    28   ar
     6    28    19    1
     7    19    20    2
     8    19    21   am
     9    21     1    1
    10     1     2   ar
    11     2     3   ar
    12     3     4   ar
    13     4     8    1
    14     8     9   am
    15     9    10    2
    16     9    11    1
    17    11    12   ar
    18    12    13   ar
    19    13    14   ar
    20    14    15   ar
    21    15    16   ar
    22    16    17    1
    23    17    18    2
    24     4     5   ar
    25     5     6    1
    26     5     7   ar
    27    28    24   ar
    28     7     1   ar
    29    17     8   am
    30    16    11   ar
    31    21    22    1
@<TRIPOS>MOLECULE
*****
 28 31 0 0 0
SMALL
GASTEIGER

@<TRIPOS>ATOM
      1 C           6.5685   -2.5248   31.9551 C.ar    1  UNL1        0.0515
      2 C           5.1564   -2.7224   32.4207 C.ar    1  UNL1        0.0160
      3 C           4.5731   -1.8071   33.4560 C.ar    1  UNL1        0.0175
      4 C           5.4018   -0.6942   34.0257 C.ar    1  UNL1        0.0718
      5 C           6.8139   -0.4966   33.5601 C.ar    1  UNL1        0.0730
      6 CL          7.6427    0.6163   34.1298 Cl      1  UNL1       -0.0809
      7 C           7.3973   -1.4119   32.5247 C.ar    1  UNL1        0.0273
      8 N           4.8185    0.2211   35.0611 N.am    1  UNL1       -0.2002
      9 C           5.2207    0.2897   36.5045 C.2     1  UNL1        0.2590
     10 O           6.2770   -0.5450   37.1660 O.2     1  UNL1       -0.2691
     11 C           4.3813    1.3395   37.1703 C.ar    1  UNL1        0.0617
     12 C           4.3366    1.8420   38.5828 C.ar    1  UNL1        0.0254
     13 C           3.3709    2.9248   38.9635 C.ar    1  UNL1        0.0990
     14 N           2.4498    3.5050   37.9315 N.ar    1  UNL1       -0.2422
     15 C           2.4945    3.0025   36.5189 C.ar    1  UNL1        0.1035
     16 C           3.4602    1.9197   36.1383 C.ar    1  UNL1        0.0778
     17 C           3.7304    1.2285   34.8348 C.2     1  UNL1        0.2604
     18 O           3.0346    1.4975   33.5334 O.2     1  UNL1       -0.2691
     19 C           7.1783   -4.9210   31.1571 C.2     1  UNL1        0.2839
     20 O           6.6213   -5.4866   32.4300 O.2     1  UNL1       -0.2665
     21 N           7.1519   -3.4401   30.9197 N.am    1  UNL1       -0.2778
     22 H           7.5175   -3.0689   30.0844 H       1  UNL1        0.1553
     23 C           6.1646   -5.2180   28.0695 C.3     1  UNL1        0.0345
     24 C           7.2957   -5.9728   28.7025 C.ar    1  UNL1        0.0204
     25 C           8.1595   -6.9967   28.0276 C.ar    1  UNL1        0.0396
     26 C           9.1593   -7.4929   29.0296 C.ar    1  UNL1        0.1795
     27 O           8.9134   -6.7757   30.3239 O.2     1  UNL1       -0.4461
     28 C           7.7617   -5.8363   30.1218 C.ar    1  UNL1        0.1948
@<TRIPOS>BOND
     1    23    24    1
     2    24    25   ar
     3    25    26   ar
     4    26    27   ar
     5    27    28   ar
     6    28    19    1
     7    19    20    2
     8    19    21   am
     9    21     1    1
    10     1     2   ar
    11     2     3   ar
    12     3     4   ar
    13     4     8    1
    14     8     9   am
    15     9    10    2
    16     9    11    1
    17    11    12   ar
    18    12    13   ar
    19    13    14   ar
    20    14    15   ar
    21    15    16   ar
    22    16    17    1
    23    17    18    2
    24     4     5   ar
    25     5     6    1
    26     5     7   ar
    27    28    24   ar
    28     7     1   ar
    29    17     8   am
    30    16    11   ar
    31    21    22    1
@<TRIPOS>MOLECULE
*****
 28 31 0 0 0
SMALL
GASTEIGER

@<TRIPOS>ATOM
      1 C         -15.8089   -1.4691   19.4238 C.ar    1  UNL1        0.0515
      2 C         -16.7929   -2.0709   18.4650 C.ar    1  UNL1        0.0160
      3 C         -16.8695   -3.5604   18.3051 C.ar    1  UNL1        0.0175
      4 C         -15.9621   -4.4481   19.1041 C.ar    1  UNL1        0.0718
      5 C         -14.9780   -3.8463   20.0629 C.ar    1  UNL1        0.0730
      6 CL        -14.0704   -4.7340   20.8620 Cl      1  UNL1       -0.0809
      7 C         -14.9014   -2.3568   20.2228 C.ar    1  UNL1        0.0273
      8 N         -16.0387   -5.9376   18.9442 N.am    1  UNL1       -0.2002
      9 C         -17.2121   -6.8030   19.2966 C.2     1  UNL1        0.2590
     10 O         -18.5149   -6.3308   19.8707 O.2     1  UNL1       -0.2691
     11 C         -16.8539   -8.2235   18.9741 C.ar    1  UNL1        0.0617
     12 C         -17.6177   -9.5071   19.1115 C.ar    1  UNL1        0.0254
     13 C         -16.9866  -10.8033   18.6972 C.ar    1  UNL1        0.0990
     14 N         -15.5918  -10.8158   18.1455 N.ar    1  UNL1       -0.2422
     15 C         -14.8281   -9.5321   18.0081 C.ar    1  UNL1        0.1035
     16 C         -15.4591   -8.2360   18.4224 C.ar    1  UNL1        0.0778
     17 C         -14.9553   -6.8232   18.4039 C.2     1  UNL1        0.2604
     18 O         -13.6051   -6.3749   17.9286 O.2     1  UNL1       -0.2691
     19 C         -16.8102    0.7512   20.3278 C.2     1  UNL1        0.2839
     20 O         -17.9648   -0.0074   20.9122 O.2     1  UNL1       -0.2665
     21 N         -15.7323    0.0204   19.5836 N.am    1  UNL1       -0.2778
     22 H         -14.9745    0.5183   19.2001 H       1  UNL1        0.1553
     23 C         -17.2476    2.4073   23.1055 C.3     1  UNL1        0.0345
     24 C         -16.9347    3.0019   21.7645 C.ar    1  UNL1        0.0204
     25 C         -16.7678    4.4622   21.4647 C.ar    1  UNL1        0.0396
     26 C         -16.4636    4.6035   20.0027 C.ar    1  UNL1        0.1795
     27 O         -16.4425    3.2305   19.3989 O.2     1  UNL1       -0.4461
     28 C         -16.7336    2.2407   20.4877 C.ar    1  UNL1        0.1948
@<TRIPOS>BOND
     1    23    24    1
     2    24    25   ar
     3    25    26   ar
     4    26    27   ar
     5    27    28   ar
     6    28    19    1
     7    19    20    2
     8    19    21   am
     9    21     1    1
    10     1     2   ar
    11     2     3   ar
    12     3     4   ar
    13     4     8    1
    14     8     9   am
    15     9    10    2
    16     9    11    1
    17    11    12   ar
    18    12    13   ar
    19    13    14   ar
    20    14    15   ar
    21    15    16   ar
    22    16    17    1
    23    17    18    2
    24     4     5   ar
    25     5     6    1
    26     5     7   ar
    27    28    24   ar
    28     7     1   ar
    29    17     8   am
    30    16    11   ar
    31    21    22    1
@<TRIPOS>MOLECULE
*****
 28 31 0 0 0
SMALL
GASTEIGER

@<TRIPOS>ATOM
      1 C           3.7584   -1.2880   27.7013 C.ar    1  UNL1        0.0515
      2 C           2.6355   -0.7118   28.5117 C.ar    1  UNL1        0.0160
      3 C           2.8608   -0.3389   29.9471 C.ar    1  UNL1        0.0175
      4 C           4.2092   -0.5423   30.5720 C.ar    1  UNL1        0.0718
      5 C           5.3322   -1.1184   29.7615 C.ar    1  UNL1        0.0730
      6 CL          6.6806   -1.3218   30.3864 Cl      1  UNL1       -0.0809
      7 C           5.1068   -1.4913   28.3262 C.ar    1  UNL1        0.0273
      8 N           4.4346   -0.1694   32.0073 N.am    1  UNL1       -0.2002
      9 C           4.2737   -1.0779   33.1900 C.2     1  UNL1        0.2590
     10 O           3.8593   -2.5188   33.1450 O.2     1  UNL1       -0.2691
     11 C           4.6001   -0.2926   34.4256 C.ar    1  UNL1        0.0617
     12 C           4.6140   -0.6667   35.8781 C.ar    1  UNL1        0.0254
     13 C           4.9905    0.3531   36.9116 C.ar    1  UNL1        0.0990
     14 N           5.3530    1.7471   36.4926 N.ar    1  UNL1       -0.2422
     15 C           5.3391    2.1211   35.0401 C.ar    1  UNL1        0.1035
     16 C           4.9627    1.1013   34.0066 C.ar    1  UNL1        0.0778
     17 C           4.8604    1.1774   32.5120 C.2     1  UNL1        0.2604
     18 O           5.1355    2.3879   31.6700 O.2     1  UNL1       -0.2691
     19 C           3.8988   -0.6987   25.1748 C.2     1  UNL1        0.2839
     20 O           4.4899    0.6363   25.5190 O.2     1  UNL1       -0.2665
     21 N           3.5331   -1.6608   26.2659 N.am    1  UNL1       -0.2778
     22 H           3.1451   -2.5370   26.0400 H       1  UNL1        0.1553
     23 C           5.3076   -3.1819   23.5940 C.3     1  UNL1        0.0345
     24 C           4.3210   -2.2130   23.0129 C.ar    1  UNL1        0.0204
     25 C           3.8087   -2.2153   21.6031 C.ar    1  UNL1        0.0396
     26 C           2.8445   -1.0754   21.4583 C.ar    1  UNL1        0.1795
     27 O           2.7609   -0.3685   22.7787 O.2     1  UNL1       -0.4461
     28 C           3.6734   -1.0716   23.7395 C.ar    1  UNL1        0.1948
@<TRIPOS>BOND
     1    23    24    1
     2    24    25   ar
     3    25    26   ar
     4    26    27   ar
     5    27    28   ar
     6    28    19    1
     7    19    20    2
     8    19    21   am
     9    21     1    1
    10     1     2   ar
    11     2     3   ar
    12     3     4   ar
    13     4     8    1
    14     8     9   am
    15     9    10    2
    16     9    11    1
    17    11    12   ar
    18    12    13   ar
    19    13    14   ar
    20    14    15   ar
    21    15    16   ar
    22    16    17    1
    23    17    18    2
    24     4     5   ar
    25     5     6    1
    26     5     7   ar
    27    28    24   ar
    28     7     1   ar
    29    17     8   am
    30    16    11   ar
    31    21    22    1
@<TRIPOS>MOLECULE
*****
 28 31 0 0 0
SMALL
GASTEIGER

@<TRIPOS>ATOM
      1 C           7.0913   -3.5250   29.8486 C.ar    1  UNL1        0.0515
      2 C           6.9516   -2.2177   29.1265 C.ar    1  UNL1        0.0160
      3 C           6.1676   -1.0989   29.7458 C.ar    1  UNL1        0.0175
      4 C           5.5232   -1.2873   31.0871 C.ar    1  UNL1        0.0718
      5 C           5.6628   -2.5946   31.8092 C.ar    1  UNL1        0.0730
      6 CL          5.0184   -2.7831   33.1506 Cl      1  UNL1       -0.0809
      7 C           6.4469   -3.7134   31.1899 C.ar    1  UNL1        0.0273
      8 N           4.7391   -0.1685   31.7063 N.am    1  UNL1       -0.2002
      9 C           5.3054    0.9705   32.5013 C.2     1  UNL1        0.2590
     10 O           6.7553    1.1906   32.8167 O.2     1  UNL1       -0.2691
     11 C           4.1674    1.8507   32.9256 C.ar    1  UNL1        0.0617
     12 C           4.1232    3.1171   33.7283 C.ar    1  UNL1        0.0254
     13 C           2.8093    3.7885   33.9982 C.ar    1  UNL1        0.0990
     14 N           1.5396    3.1936   33.4654 N.ar    1  UNL1       -0.2422
     15 C           1.5838    1.9272   32.6627 C.ar    1  UNL1        0.1035
     16 C           2.8976    1.2558   32.3929 C.ar    1  UNL1        0.0778
     17 C           3.2510    0.0078   31.6393 C.2     1  UNL1        0.2604
     18 O           2.2857   -0.9037   30.9412 O.2     1  UNL1       -0.2691
     19 C           7.1821   -5.6605   28.3718 C.2     1  UNL1        0.2839
     20 O           5.7046   -5.5585   28.1334 O.2     1  UNL1       -0.2665
     21 N           7.8754   -4.6438   29.2294 N.am    1  UNL1       -0.2778
     22 H           8.8451   -4.7108   29.3858 H       1  UNL1        0.1553
     23 C           7.7315   -6.0822   25.1827 C.3     1  UNL1        0.0345
     24 C           8.2187   -6.9731   26.2866 C.ar    1  UNL1        0.0204
     25 C           9.0440   -8.2144   26.1186 C.ar    1  UNL1        0.0396
     26 C           9.3015   -8.7878   27.4806 C.ar    1  UNL1        0.1795
     27 O           8.6353   -7.9008   28.4904 O.2     1  UNL1       -0.4461
     28 C           7.9661   -6.7794   27.7525 C.ar    1  UNL1        0.1948
@<TRIPOS>BOND
     1    23    24    1
     2    24    25   ar
     3    25    26   ar
     4    26    27   ar
     5    27    28   ar
     6    28    19    1
     7    19    20    2
     8    19    21   am
     9    21     1    1
    10     1     2   ar
    11     2     3   ar
    12     3     4   ar
    13     4     8    1
    14     8     9   am
    15     9    10    2
    16     9    11    1
    17    11    12   ar
    18    12    13   ar
    19    13    14   ar
    20    14    15   ar
    21    15    16   ar
    22    16    17    1
    23    17    18    2
    24     4     5   ar
    25     5     6    1
    26     5     7   ar
    27    28    24   ar
    28     7     1   ar
    29    17     8   am
    30    16    11   ar
    31    21    22    1
