@<TRIPOS>MOLECULE
*****
 23 25 0 0 0
SMALL
GASTEIGER

@<TRIPOS>ATOM
      1 N          -8.7082  -16.8971   22.9860 N.pl3   1  UNL1       -0.2759
      2 C          -7.8364  -16.3075   24.0547 C.ar    1  UNL1        0.0551
      3 C          -6.3561  -16.1976   23.8392 C.ar    1  UNL1        0.0150
      4 C          -5.4843  -15.6079   24.9081 C.ar    1  UNL1        0.0044
      5 C          -6.0929  -15.1283   26.1924 C.ar    1  UNL1        0.0367
      6 C          -7.5733  -15.2382   26.4079 C.ar    1  UNL1        0.1349
      7 O          -8.1819  -14.7585   27.6923 O.3     1  UNL1       -0.5055
      8 C          -8.4450  -15.8278   25.3391 C.ar    1  UNL1        0.0514
      9 H          -7.6373  -14.3902   28.3599 H       1  UNL1        0.2922
     10 C         -14.4190  -18.2823   24.1977 C.3     1  UNL1        0.0310
     11 C         -12.9913  -17.9360   23.8947 C.ar    1  UNL1       -0.0218
     12 C         -12.6750  -16.7778   22.9956 C.ar    1  UNL1       -0.0030
     13 C         -11.2473  -16.4315   22.6927 C.ar    1  UNL1        0.0145
     14 C         -10.1359  -17.2434   23.2889 C.ar    1  UNL1        0.0520
     15 C         -10.4521  -18.4016   24.1880 C.ar    1  UNL1        0.0145
     16 C         -11.8798  -18.7479   24.4910 C.ar    1  UNL1       -0.0030
     17 C          -8.1522  -17.1405   21.6142 C.3     1  UNL1        0.2131
     18 C          -7.3280  -18.3645   21.3453 C.2     1  UNL1        0.3125
     19 N          -7.2064  -19.5603   22.2427 N.2     1  UNL1       -0.0634
     20 C          -6.2839  -20.5425   21.5838 C.3     1  UNL1        0.3130
     21 C          -5.8353  -19.9538   20.2791 C.3     1  UNL1        0.2575
     22 N          -6.4806  -18.6077   20.1316 N.pl3   1  UNL1       -0.2175
     23 H          -6.3678  -17.9920   19.3717 H       1  UNL1        0.2921
@<TRIPOS>BOND
     1    10    11    1
     2    11    12   ar
     3    12    13   ar
     4    13    14   ar
     5    14     1    1
     6     1    17    1
     7    17    18    1
     8    18    19    2
     9    19    20    1
    10    20    21    1
    11    21    22    1
    12     1     2    1
    13     2     3   ar
    14     3     4   ar
    15     4     5   ar
    16     5     6   ar
    17     6     7    1
    18     6     8   ar
    19    14    15   ar
    20    15    16   ar
    21    16    11   ar
    22    22    18    1
    23     8     2   ar
    24    22    23    1
    25     7     9    1
@<TRIPOS>MOLECULE
*****
 23 25 0 0 0
SMALL
GASTEIGER

@<TRIPOS>ATOM
      1 N          -8.3935  -17.0439   22.6569 N.pl3   1  UNL1       -0.2759
      2 C          -7.5854  -18.0818   21.9359 C.ar    1  UNL1        0.0551
      3 C          -8.1894  -18.8416   20.7923 C.ar    1  UNL1        0.0150
      4 C          -7.3813  -19.8795   20.0713 C.ar    1  UNL1        0.0044
      5 C          -5.9692  -20.1575   20.4940 C.ar    1  UNL1        0.0367
      6 C          -5.3652  -19.3977   21.6376 C.ar    1  UNL1        0.1349
      7 O          -3.9530  -19.6758   22.0602 O.3     1  UNL1       -0.5055
      8 C          -6.1733  -18.3599   22.3586 C.ar    1  UNL1        0.0514
      9 H          -3.4483  -20.3242   21.6099 H       1  UNL1        0.2922
     10 C         -14.1081  -18.1623   24.1035 C.3     1  UNL1        0.0310
     11 C         -12.6794  -17.8827   23.7419 C.ar    1  UNL1       -0.0218
     12 C         -11.5748  -18.6608   24.3932 C.ar    1  UNL1       -0.0030
     13 C         -10.1461  -18.3812   24.0315 C.ar    1  UNL1        0.0145
     14 C          -9.8221  -17.3235   23.0185 C.ar    1  UNL1        0.0520
     15 C         -10.9268  -16.5454   22.3672 C.ar    1  UNL1        0.0145
     16 C         -12.3554  -16.8250   22.7289 C.ar    1  UNL1       -0.0030
     17 C          -7.7729  -15.7265   23.0162 C.3     1  UNL1        0.2131
     18 C          -7.1017  -15.5514   24.3462 C.2     1  UNL1        0.3125
     19 N          -5.6940  -15.0836   24.5686 N.2     1  UNL1       -0.0634
     20 C          -5.4426  -15.0565   26.0471 C.3     1  UNL1        0.3130
     21 C          -6.6950  -15.5077   26.7385 C.3     1  UNL1        0.2575
     22 N          -7.7204  -15.8136   25.6873 N.pl3   1  UNL1       -0.2175
     23 H          -8.6383  -16.1307   25.8492 H       1  UNL1        0.2921
@<TRIPOS>BOND
     1    10    11    1
     2    11    12   ar
     3    12    13   ar
     4    13    14   ar
     5    14     1    1
     6     1    17    1
     7    17    18    1
     8    18    19    2
     9    19    20    1
    10    20    21    1
    11    21    22    1
    12     1     2    1
    13     2     3   ar
    14     3     4   ar
    15     4     5   ar
    16     5     6   ar
    17     6     7    1
    18     6     8   ar
    19    14    15   ar
    20    15    16   ar
    21    16    11   ar
    22    22    18    1
    23     8     2   ar
    24    22    23    1
    25     7     9    1
@<TRIPOS>MOLECULE
*****
 23 25 0 0 0
SMALL
GASTEIGER

@<TRIPOS>ATOM
      1 N          -8.2735  -16.9031   22.6736 N.pl3   1  UNL1       -0.2759
      2 C          -9.7507  -17.1630   22.6593 C.ar    1  UNL1        0.0551
      3 C         -10.3788  -17.9811   23.7484 C.ar    1  UNL1        0.0150
      4 C         -11.8561  -18.2410   23.7341 C.ar    1  UNL1        0.0044
      5 C         -12.7052  -17.6828   22.6307 C.ar    1  UNL1        0.0367
      6 C         -12.0770  -16.8646   21.5416 C.ar    1  UNL1        0.1349
      7 O         -12.9262  -16.3064   20.4382 O.3     1  UNL1       -0.5055
      8 C         -10.5998  -16.6047   21.5559 C.ar    1  UNL1        0.0514
      9 H         -13.8490  -16.4688   20.4293 H       1  UNL1        0.2922
     10 C          -4.5075  -20.8569   20.1867 C.3     1  UNL1        0.0310
     11 C          -5.4490  -19.8684   20.8085 C.ar    1  UNL1       -0.0218
     12 C          -6.8363  -19.7075   20.2613 C.ar    1  UNL1       -0.0030
     13 C          -7.7778  -18.7191   20.8830 C.ar    1  UNL1        0.0145
     14 C          -7.3320  -17.8915   22.0519 C.ar    1  UNL1        0.0520
     15 C          -5.9447  -18.0524   22.5991 C.ar    1  UNL1        0.0145
     16 C          -5.0032  -19.0409   21.9773 C.ar    1  UNL1       -0.0030
     17 C          -7.7378  -15.6547   23.3096 C.3     1  UNL1        0.2131
     18 C          -7.5761  -15.5817   24.7990 C.2     1  UNL1        0.3125
     19 N          -8.6874  -15.5418   25.8057 N.2     1  UNL1       -0.0634
     20 C          -8.0729  -15.4713   27.1722 C.3     1  UNL1        0.3130
     21 C          -6.5817  -15.4676   27.0101 C.3     1  UNL1        0.2575
     22 N          -6.2746  -15.5358   25.5434 N.pl3   1  UNL1       -0.2175
     23 H          -5.3765  -15.5483   25.1402 H       1  UNL1        0.2921
@<TRIPOS>BOND
     1    10    11    1
     2    11    12   ar
     3    12    13   ar
     4    13    14   ar
     5    14     1    1
     6     1    17    1
     7    17    18    1
     8    18    19    2
     9    19    20    1
    10    20    21    1
    11    21    22    1
    12     1     2    1
    13     2     3   ar
    14     3     4   ar
    15     4     5   ar
    16     5     6   ar
    17     6     7    1
    18     6     8   ar
    19    14    15   ar
    20    15    16   ar
    21    16    11   ar
    22    22    18    1
    23     8     2   ar
    24    22    23    1
    25     7     9    1
@<TRIPOS>MOLECULE
*****
 23 25 0 0 0
SMALL
GASTEIGER

@<TRIPOS>ATOM
      1 N          -9.1802  -18.0534   23.0463 N.pl3   1  UNL1       -0.2759
      2 C         -10.3232  -17.5189   22.2353 C.ar    1  UNL1        0.0551
      3 C         -11.7302  -17.9188   22.5678 C.ar    1  UNL1        0.0150
      4 C         -12.8733  -17.3843   21.7568 C.ar    1  UNL1        0.0044
      5 C         -12.6094  -16.4499   20.6134 C.ar    1  UNL1        0.0367
      6 C         -11.2025  -16.0500   20.2810 C.ar    1  UNL1        0.1349
      7 O         -10.9386  -15.1156   19.1376 O.3     1  UNL1       -0.5055
      8 C         -10.0594  -16.5845   21.0919 C.ar    1  UNL1        0.0514
      9 H         -11.6527  -14.7817   18.6310 H       1  UNL1        0.2922
     10 C          -6.9927  -14.8497   27.6235 C.3     1  UNL1        0.0310
     11 C          -7.5395  -15.6506   26.4792 C.ar    1  UNL1       -0.0218
     12 C          -8.6090  -16.6737   26.7232 C.ar    1  UNL1       -0.0030
     13 C          -9.1559  -17.4746   25.5789 C.ar    1  UNL1        0.0145
     14 C          -8.6333  -17.2525   24.1906 C.ar    1  UNL1        0.0520
     15 C          -7.5638  -16.2294   23.9466 C.ar    1  UNL1        0.0145
     16 C          -7.0169  -15.4285   25.0909 C.ar    1  UNL1       -0.0030
     17 C          -8.5839  -19.3888   22.7129 C.3     1  UNL1        0.2131
     18 C          -7.3952  -19.4731   21.8020 C.2     1  UNL1        0.3125
     19 N          -7.0393  -18.4929   20.7238 N.2     1  UNL1       -0.0634
     20 C          -5.7777  -18.9663   20.0648 C.3     1  UNL1        0.3130
     21 C          -5.3539  -20.2392   20.7357 C.3     1  UNL1        0.2575
     22 N          -6.3535  -20.5525   21.8094 N.pl3   1  UNL1       -0.2175
     23 H          -6.3300  -21.3299   22.4129 H       1  UNL1        0.2921
@<TRIPOS>BOND
     1    10    11    1
     2    11    12   ar
     3    12    13   ar
     4    13    14   ar
     5    14     1    1
     6     1    17    1
     7    17    18    1
     8    18    19    2
     9    19    20    1
    10    20    21    1
    11    21    22    1
    12     1     2    1
    13     2     3   ar
    14     3     4   ar
    15     4     5   ar
    16     5     6   ar
    17     6     7    1
    18     6     8   ar
    19    14    15   ar
    20    15    16   ar
    21    16    11   ar
    22    22    18    1
    23     8     2   ar
    24    22    23    1
    25     7     9    1
@<TRIPOS>MOLECULE
*****
 23 25 0 0 0
SMALL
GASTEIGER

@<TRIPOS>ATOM
      1 N          -7.7648  -16.9985   22.9273 N.pl3   1  UNL1       -0.2759
      2 C          -9.2342  -17.2828   23.0257 C.ar    1  UNL1        0.0551
      3 C         -10.1932  -16.6064   22.0915 C.ar    1  UNL1        0.0150
      4 C         -11.6628  -16.8908   22.1899 C.ar    1  UNL1        0.0044
      5 C         -12.1733  -17.8516   23.2224 C.ar    1  UNL1        0.0367
      6 C         -11.2143  -18.5281   24.1566 C.ar    1  UNL1        0.1349
      7 O         -11.7248  -19.4889   25.1892 O.3     1  UNL1       -0.5055
      8 C          -9.7448  -18.2437   24.0583 C.ar    1  UNL1        0.0514
      9 H         -12.6428  -19.6666   25.2506 H       1  UNL1        0.2922
     10 C          -4.1634  -20.7979   19.9957 C.3     1  UNL1        0.0310
     11 C          -5.0638  -19.8481   20.7286 C.ar    1  UNL1       -0.0218
     12 C          -4.5621  -19.1258   21.9437 C.ar    1  UNL1       -0.0030
     13 C          -5.4624  -18.1759   22.6767 C.ar    1  UNL1        0.0145
     14 C          -6.8644  -17.9483   22.1944 C.ar    1  UNL1        0.0520
     15 C          -7.3661  -18.6706   20.9793 C.ar    1  UNL1        0.0145
     16 C          -6.4657  -19.6205   20.2463 C.ar    1  UNL1       -0.0030
     17 C          -7.1956  -15.7643   23.5619 C.3     1  UNL1        0.2131
     18 C          -7.2735  -15.5812   25.0487 C.2     1  UNL1        0.3125
     19 N          -8.5294  -15.4165   25.8521 N.2     1  UNL1       -0.0634
     20 C          -8.1412  -15.2643   27.2930 C.3     1  UNL1        0.3130
     21 C          -6.6454  -15.3350   27.3801 C.3     1  UNL1        0.2575
     22 N          -6.1091  -15.5309   25.9930 N.pl3   1  UNL1       -0.2175
     23 H          -5.1596  -15.6121   25.7458 H       1  UNL1        0.2921
@<TRIPOS>BOND
     1    10    11    1
     2    11    12   ar
     3    12    13   ar
     4    13    14   ar
     5    14     1    1
     6     1    17    1
     7    17    18    1
     8    18    19    2
     9    19    20    1
    10    20    21    1
    11    21    22    1
    12     1     2    1
    13     2     3   ar
    14     3     4   ar
    15     4     5   ar
    16     5     6   ar
    17     6     7    1
    18     6     8   ar
    19    14    15   ar
    20    15    16   ar
    21    16    11   ar
    22    22    18    1
    23     8     2   ar
    24    22    23    1
    25     7     9    1
@<TRIPOS>MOLECULE
*****
 23 25 0 0 0
SMALL
GASTEIGER

@<TRIPOS>ATOM
      1 N          -7.8146  -18.4610   21.7526 N.pl3   1  UNL1       -0.2759
      2 C          -8.1635  -17.6094   22.9370 C.ar    1  UNL1        0.0551
      3 C          -8.9829  -18.1807   24.0561 C.ar    1  UNL1        0.0150
      4 C          -9.3318  -17.3290   25.2407 C.ar    1  UNL1        0.0044
      5 C          -8.8614  -15.9062   25.3060 C.ar    1  UNL1        0.0367
      6 C          -8.0421  -15.3350   24.1869 C.ar    1  UNL1        0.1349
      7 O          -7.5717  -13.9121   24.2524 O.3     1  UNL1       -0.5055
      8 C          -7.6932  -16.1865   23.0025 C.ar    1  UNL1        0.0514
      9 H          -7.7897  -13.3802   24.9923 H       1  UNL1        0.2922
     10 C          -2.0878  -19.8782   20.6594 C.3     1  UNL1        0.0310
     11 C          -3.5195  -19.5239   20.9327 C.ar    1  UNL1       -0.0218
     12 C          -3.9367  -19.0959   22.3084 C.ar    1  UNL1       -0.0030
     13 C          -5.3684  -18.7416   22.5817 C.ar    1  UNL1        0.0145
     14 C          -6.3829  -18.8153   21.4793 C.ar    1  UNL1        0.0520
     15 C          -5.9656  -19.2432   20.1035 C.ar    1  UNL1        0.0145
     16 C          -4.5339  -19.5975   19.8302 C.ar    1  UNL1       -0.0030
     17 C          -8.8974  -18.9582   20.8414 C.3     1  UNL1        0.2131
     18 C         -10.2221  -18.2560   20.7977 C.2     1  UNL1        0.3125
     19 N         -11.4762  -18.6953   21.4935 N.2     1  UNL1       -0.0634
     20 C         -12.5546  -17.7020   21.1764 C.3     1  UNL1        0.3130
     21 C         -11.9669  -16.6488   20.2846 C.3     1  UNL1        0.2575
     22 N         -10.5253  -16.9911   20.0505 N.pl3   1  UNL1       -0.2175
     23 H          -9.8898  -16.4761   19.5027 H       1  UNL1        0.2921
@<TRIPOS>BOND
     1    10    11    1
     2    11    12   ar
     3    12    13   ar
     4    13    14   ar
     5    14     1    1
     6     1    17    1
     7    17    18    1
     8    18    19    2
     9    19    20    1
    10    20    21    1
    11    21    22    1
    12     1     2    1
    13     2     3   ar
    14     3     4   ar
    15     4     5   ar
    16     5     6   ar
    17     6     7    1
    18     6     8   ar
    19    14    15   ar
    20    15    16   ar
    21    16    11   ar
    22    22    18    1
    23     8     2   ar
    24    22    23    1
    25     7     9    1
@<TRIPOS>MOLECULE
*****
 23 25 0 0 0
SMALL
GASTEIGER

@<TRIPOS>ATOM
      1 N          -8.2511  -16.8177   22.8130 N.pl3   1  UNL1       -0.2759
      2 C          -7.8917  -16.3773   24.2010 C.ar    1  UNL1        0.0551
      3 C          -8.7416  -16.7953   25.3642 C.ar    1  UNL1        0.0150
      4 C          -8.3821  -16.3548   26.7523 C.ar    1  UNL1        0.0044
      5 C          -7.1728  -15.4964   26.9772 C.ar    1  UNL1        0.0367
      6 C          -6.3229  -15.0784   25.8140 C.ar    1  UNL1        0.1349
      7 O          -5.1135  -14.2199   26.0389 O.3     1  UNL1       -0.5055
      8 C          -6.6823  -15.5188   24.4260 C.ar    1  UNL1        0.0514
      9 H          -4.8890  -13.9447   26.9060 H       1  UNL1        0.2922
     10 C          -5.0857  -21.1488   20.1256 C.3     1  UNL1        0.0310
     11 C          -5.8770  -20.0660   20.7975 C.ar    1  UNL1       -0.0218
     12 C          -5.2679  -19.2776   21.9187 C.ar    1  UNL1       -0.0030
     13 C          -6.0593  -18.1948   22.5905 C.ar    1  UNL1        0.0145
     14 C          -7.4598  -17.9005   22.1411 C.ar    1  UNL1        0.0520
     15 C          -8.0689  -18.6890   21.0199 C.ar    1  UNL1        0.0145
     16 C          -7.2775  -19.7718   20.3480 C.ar    1  UNL1       -0.0030
     17 C          -9.4019  -16.1754   22.0967 C.3     1  UNL1        0.2131
     18 C         -10.7602  -16.8106   22.1387 C.2     1  UNL1        0.3125
     19 N         -11.6921  -16.9768   20.9751 N.2     1  UNL1       -0.0634
     20 C         -12.9329  -17.6600   21.4688 C.3     1  UNL1        0.3130
     21 C         -12.7677  -17.9162   22.9376 C.3     1  UNL1        0.2575
     22 N         -11.4249  -17.3912   23.3516 N.pl3   1  UNL1       -0.2175
     23 H         -11.0464  -17.4223   24.2599 H       1  UNL1        0.2921
@<TRIPOS>BOND
     1    10    11    1
     2    11    12   ar
     3    12    13   ar
     4    13    14   ar
     5    14     1    1
     6     1    17    1
     7    17    18    1
     8    18    19    2
     9    19    20    1
    10    20    21    1
    11    21    22    1
    12     1     2    1
    13     2     3   ar
    14     3     4   ar
    15     4     5   ar
    16     5     6   ar
    17     6     7    1
    18     6     8   ar
    19    14    15   ar
    20    15    16   ar
    21    16    11   ar
    22    22    18    1
    23     8     2   ar
    24    22    23    1
    25     7     9    1
@<TRIPOS>MOLECULE
*****
 23 25 0 0 0
SMALL
GASTEIGER

@<TRIPOS>ATOM
      1 N          -7.2047  -16.9443   23.0477 N.pl3   1  UNL1       -0.2759
      2 C          -6.2053  -17.9410   22.5402 C.ar    1  UNL1        0.0551
      3 C          -4.7753  -17.8633   22.9867 C.ar    1  UNL1        0.0150
      4 C          -3.7759  -18.8601   22.4791 C.ar    1  UNL1        0.0044
      5 C          -4.2064  -19.9346   21.5251 C.ar    1  UNL1        0.0367
      6 C          -5.6363  -20.0123   21.0787 C.ar    1  UNL1        0.1349
      7 O          -6.0668  -21.0869   20.1247 O.3     1  UNL1       -0.5055
      8 C          -6.6357  -19.0156   21.5862 C.ar    1  UNL1        0.0514
      9 H          -5.4424  -21.7096   19.8077 H       1  UNL1        0.2922
     10 C         -13.0710  -17.8859   22.2115 C.3     1  UNL1        0.0310
     11 C         -11.6044  -17.6505   22.4205 C.ar    1  UNL1       -0.0218
     12 C         -10.8867  -16.6176   21.6033 C.ar    1  UNL1       -0.0030
     13 C          -9.4201  -16.3822   21.8124 C.ar    1  UNL1        0.0145
     14 C          -8.6713  -17.1797   22.8386 C.ar    1  UNL1        0.0520
     15 C          -9.3890  -18.2126   23.6559 C.ar    1  UNL1        0.0145
     16 C         -10.8556  -18.4480   23.4468 C.ar    1  UNL1       -0.0030
     17 C          -6.7375  -15.7121   23.7643 C.3     1  UNL1        0.2131
     18 C          -7.0434  -15.5306   25.2215 C.2     1  UNL1        0.3125
     19 N          -8.4109  -15.4274   25.8292 N.2     1  UNL1       -0.0634
     20 C          -8.2481  -15.2533   27.3101 C.3     1  UNL1        0.3130
     21 C          -6.7800  -15.2489   27.6177 C.3     1  UNL1        0.2575
     22 N          -6.0354  -15.4203   26.3269 N.pl3   1  UNL1       -0.2175
     23 H          -5.0569  -15.4543   26.2234 H       1  UNL1        0.2921
@<TRIPOS>BOND
     1    10    11    1
     2    11    12   ar
     3    12    13   ar
     4    13    14   ar
     5    14     1    1
     6     1    17    1
     7    17    18    1
     8    18    19    2
     9    19    20    1
    10    20    21    1
    11    21    22    1
    12     1     2    1
    13     2     3   ar
    14     3     4   ar
    15     4     5   ar
    16     5     6   ar
    17     6     7    1
    18     6     8   ar
    19    14    15   ar
    20    15    16   ar
    21    16    11   ar
    22    22    18    1
    23     8     2   ar
    24    22    23    1
    25     7     9    1
@<TRIPOS>MOLECULE
*****
 23 25 0 0 0
SMALL
GASTEIGER

@<TRIPOS>ATOM
      1 N          -8.9753  -18.0533   23.4452 N.pl3   1  UNL1       -0.2759
      2 C          -8.1579  -16.9637   24.0734 C.ar    1  UNL1        0.0551
      3 C          -8.5014  -16.4648   25.4457 C.ar    1  UNL1        0.0150
      4 C          -7.6840  -15.3752   26.0739 C.ar    1  UNL1        0.0044
      5 C          -6.5231  -14.7846   25.3299 C.ar    1  UNL1        0.0367
      6 C          -6.1796  -15.2836   23.9577 C.ar    1  UNL1        0.1349
      7 O          -5.0187  -14.6929   23.2137 O.3     1  UNL1       -0.5055
      8 C          -6.9970  -16.3731   23.3294 C.ar    1  UNL1        0.0514
      9 H          -4.5081  -14.0123   23.6061 H       1  UNL1        0.2922
     10 C         -14.9191  -18.1901   24.2529 C.3     1  UNL1        0.0310
     11 C         -13.4332  -18.1559   24.0510 C.ar    1  UNL1       -0.0218
     12 C         -12.8371  -17.2428   23.0210 C.ar    1  UNL1       -0.0030
     13 C         -11.3511  -17.2086   22.8191 C.ar    1  UNL1        0.0145
     14 C         -10.4613  -18.0875   23.6471 C.ar    1  UNL1        0.0520
     15 C         -11.0574  -19.0006   24.6771 C.ar    1  UNL1        0.0145
     16 C         -12.5433  -19.0348   24.8790 C.ar    1  UNL1       -0.0030
     17 C          -8.3067  -19.1086   22.6150 C.3     1  UNL1        0.2131
     18 C          -8.7163  -19.3101   21.1862 C.2     1  UNL1        0.3125
     19 N          -7.8193  -19.2045   19.9886 N.2     1  UNL1       -0.0634
     20 C          -8.6434  -19.4817   18.7663 C.3     1  UNL1        0.3130
     21 C         -10.0497  -19.7586   19.2084 C.3     1  UNL1        0.2575
     22 N         -10.0949  -19.6526   20.7040 N.pl3   1  UNL1       -0.2175
     23 H         -10.8897  -19.7846   21.2698 H       1  UNL1        0.2921
@<TRIPOS>BOND
     1    10    11    1
     2    11    12   ar
     3    12    13   ar
     4    13    14   ar
     5    14     1    1
     6     1    17    1
     7    17    18    1
     8    18    19    2
     9    19    20    1
    10    20    21    1
    11    21    22    1
    12     1     2    1
    13     2     3   ar
    14     3     4   ar
    15     4     5   ar
    16     5     6   ar
    17     6     7    1
    18     6     8   ar
    19    14    15   ar
    20    15    16   ar
    21    16    11   ar
    22    22    18    1
    23     8     2   ar
    24    22    23    1
    25     7     9    1
