@<TRIPOS>MOLECULE
*****
 48 52 0 0 0
SMALL
GASTEIGER

@<TRIPOS>ATOM
      1 C           2.7338    1.3294   22.1427 C.3     1  UNL1        0.2187
      2 C           2.2054    2.6914   21.8026 C.3     1  UNL1        0.0526
      3 C           3.0418    3.6406   20.9966 C.3     1  UNL1        0.0257
      4 C           4.4065    3.2278   20.5308 C.3     1  UNL1        0.0940
      5 N           4.9349    1.8657   20.8710 N.am    1  UNL1       -0.2720
      6 C           6.2996    1.4528   20.4052 C.2     1  UNL1        0.2506
      7 O           6.8280    0.0908   20.7453 O.2     1  UNL1       -0.2699
      8 C           4.0985    0.9166   21.6769 C.3     1  UNL1        0.1425
      9 N           0.9692    2.3590   27.1503 N.pl3   1  UNL1       -0.3017
     10 C           2.3124    2.4274   26.4863 C.3     1  UNL1        0.1124
     11 C           2.4529    2.0614   25.0384 C.3     1  UNL1        0.1149
     12 N           1.2500    1.6270   24.2545 N.am    1  UNL1       -0.2732
     13 C           1.3905    1.2610   22.8067 C.2     1  UNL1        0.2637
     14 O           0.1876    0.8265   22.0229 O.2     1  UNL1       -0.2711
     15 C          -0.0933    1.5585   24.9185 C.3     1  UNL1        0.1149
     16 C          -0.2337    1.9245   26.3664 C.3     1  UNL1        0.1124
     17 C           0.7680    1.6489   29.6413 C.ar    1  UNL1        0.1518
     18 C           0.6276    2.0149   31.0892 C.ar    1  UNL1        0.0382
     19 C           0.5480    3.4571   31.4938 C.ar    1  UNL1        0.0032
     20 C           0.6087    4.5332   30.4507 C.ar    1  UNL1        0.0015
     21 C           0.7491    4.1672   29.0029 C.ar    1  UNL1        0.0176
     22 C           0.8288    2.7250   28.5982 C.ar    1  UNL1        0.0824
     23 O           0.8476    0.2067   29.2366 O.3     1  UNL1       -0.4715
     24 C           2.1760   -0.4081   28.9091 C.3     1  UNL1        0.2374
     25 C           3.1298   -0.7641   30.0107 C.3     1  UNL1        0.1894
     26 C           3.4001   -0.0622   32.4976 C.3     1  UNL1        0.1743
     27 O           2.6518   -0.8068   31.4319 O.3     1  UNL1       -0.3471
     28 C           7.1360    2.4020   19.5992 C.ar    1  UNL1        0.0766
     29 C           8.0107    3.4046   20.2919 C.ar    1  UNL1        0.1033
     30 N           8.8471    4.3538   19.4859 N.ar    1  UNL1       -0.2422
     31 C           8.8089    4.3004   17.9874 C.ar    1  UNL1        0.0988
     32 C           7.9342    3.2977   17.2947 C.ar    1  UNL1        0.0247
     33 C           7.0978    2.3486   18.1006 C.ar    1  UNL1        0.0788
     34 C           6.2232    1.3460   17.4080 C.3     1  UNL1        0.4188
     35 F           5.3485    0.3432   16.7154 F       1  UNL1       -0.1659
     36 F           7.3642    0.3729   17.3757 F       1  UNL1       -0.1659
     37 F           5.0820    2.3190   17.4404 F       1  UNL1       -0.1659
     38 O           2.7956   -0.0564   22.7134 O.3     1  UNL1       -0.4722
     39 C           3.2004   -1.2088   21.8426 C.ar    1  UNL1        0.1390
     40 C           4.1076   -2.2743   22.3826 C.ar    1  UNL1        0.0369
     41 C           4.5124   -3.4267   21.5118 C.ar    1  UNL1        0.0070
     42 C           4.0099   -3.5135   20.1011 C.ar    1  UNL1        0.0716
     43 C           3.1027   -2.4480   19.5612 C.ar    1  UNL1        0.0070
     44 C           2.6979   -1.2956   20.4320 C.ar    1  UNL1        0.0369
     45 C           4.4147   -4.6658   19.2303 C.3     1  UNL1        0.4186
     46 F           4.8195   -5.8181   18.3594 F       1  UNL1       -0.1659
     47 F           5.4896   -3.8214   18.6126 F       1  UNL1       -0.1659
     48 F           3.3398   -5.5103   19.8480 F       1  UNL1       -0.1659
@<TRIPOS>BOND
     1    26    27    1
     2    27    25    1
     3    25    24    1
     4    24    23    1
     5    23    17    1
     6    17    18   ar
     7    18    19   ar
     8    19    20   ar
     9    20    21   ar
    10    21    22   ar
    11    22     9    1
    12     9    10    1
    13    10    11    1
    14    11    12    1
    15    12    13   am
    16    13    14    2
    17    13     1    1
    18     1    38    1
    19    38    39    1
    20    39    40   ar
    21    40    41   ar
    22    41    42   ar
    23    42    45    1
    24    45    46    1
    25    45    47    1
    26    45    48    1
    27    42    43   ar
    28    43    44   ar
    29     1     2    1
    30     2     3    1
    31     3     4    1
    32     4     5    1
    33     5     6   am
    34     6     7    2
    35     6    28    1
    36    28    29   ar
    37    29    30   ar
    38    30    31   ar
    39    31    32   ar
    40    32    33   ar
    41    33    34    1
    42    34    35    1
    43    34    36    1
    44    34    37    1
    45     5     8    1
    46    12    15    1
    47    15    16    1
    48    22    17   ar
    49    16     9    1
    50     8     1    1
    51    44    39   ar
    52    33    28   ar
@<TRIPOS>MOLECULE
*****
 48 52 0 0 0
SMALL
GASTEIGER

@<TRIPOS>ATOM
      1 C           5.1225    0.5796   29.5440 C.3     1  UNL1        0.2187
      2 C           5.7980    1.5475   28.6184 C.3     1  UNL1        0.0526
      3 C           5.0273    2.7000   28.0458 C.3     1  UNL1        0.0257
      4 C           3.5811    2.8845   28.3988 C.3     1  UNL1        0.0940
      5 N           2.9056    1.9165   29.3244 N.am    1  UNL1       -0.2720
      6 C           1.4595    2.1009   29.6774 C.2     1  UNL1        0.2506
      7 O           0.7840    1.1329   30.6030 O.2     1  UNL1       -0.2699
      8 C           3.6763    0.7640   29.8970 C.3     1  UNL1        0.1425
      9 N           7.2749   -3.7676   27.1524 N.pl3   1  UNL1       -0.3017
     10 C           5.8971   -3.1755   27.1883 C.3     1  UNL1        0.1124
     11 C           5.6389   -1.9238   27.9735 C.3     1  UNL1        0.1149
     12 N           6.7584   -1.2642   28.7229 N.am    1  UNL1       -0.2732
     13 C           6.5002   -0.0125   29.5081 C.2     1  UNL1        0.2637
     14 O           7.6197    0.6471   30.2575 O.2     1  UNL1       -0.2711
     15 C           8.1362   -1.8562   28.6870 C.3     1  UNL1        0.1149
     16 C           8.3944   -3.1080   27.9017 C.3     1  UNL1        0.1124
     17 C           7.5562   -6.3488   27.0613 C.ar    1  UNL1        0.1518
     18 C           7.8144   -7.6004   26.2760 C.ar    1  UNL1        0.0382
     19 C           8.0494   -7.5225   24.7966 C.ar    1  UNL1        0.0032
     20 C           8.0263   -6.1931   24.1024 C.ar    1  UNL1        0.0015
     21 C           7.7681   -4.9414   24.8877 C.ar    1  UNL1        0.0176
     22 C           7.5331   -5.0193   26.3671 C.ar    1  UNL1        0.0824
     23 O           7.3212   -6.4266   28.5407 O.3     1  UNL1       -0.4715
     24 C           8.4864   -6.4481   29.4851 C.3     1  UNL1        0.2374
     25 C           8.3014   -6.0312   30.9140 C.3     1  UNL1        0.1894
     26 C           6.7133   -4.0043   31.2603 C.3     1  UNL1        0.1743
     27 O           8.0966   -4.5843   31.2527 O.3     1  UNL1       -0.3471
     28 C           0.6888    3.2534   29.1048 C.ar    1  UNL1        0.0766
     29 C           0.7100    4.5859   29.7934 C.ar    1  UNL1        0.1033
     30 N          -0.0607    5.7384   29.2208 N.ar    1  UNL1       -0.2422
     31 C          -0.8526    5.5584   27.9597 C.ar    1  UNL1        0.0988
     32 C          -0.8738    4.2259   27.2711 C.ar    1  UNL1        0.0247
     33 C          -0.1032    3.0735   27.8436 C.ar    1  UNL1        0.0788
     34 C          -0.1243    1.7410   27.1551 C.3     1  UNL1        0.4188
     35 F          -0.1455    0.4085   26.4665 F       1  UNL1       -0.1659
     36 F           1.0758    2.1390   26.3481 F       1  UNL1       -0.1659
     37 F          -1.3244    1.3430   27.9621 F       1  UNL1       -0.1659
     38 O           4.9255   -0.5941   30.4571 O.3     1  UNL1       -0.4722
     39 C           4.8476   -0.3854   31.9405 C.ar    1  UNL1        0.1390
     40 C           4.4251   -1.5128   32.8353 C.ar    1  UNL1        0.0369
     41 C           4.3472   -1.3041   34.3187 C.ar    1  UNL1        0.0070
     42 C           4.6918    0.0318   34.9073 C.ar    1  UNL1        0.0716
     43 C           5.1144    1.1591   34.0125 C.ar    1  UNL1        0.0070
     44 C           5.1922    0.9505   32.5291 C.ar    1  UNL1        0.0369
     45 C           4.6140    0.2405   36.3906 C.3     1  UNL1        0.4186
     46 F           4.5361    0.4493   37.8740 F       1  UNL1       -0.1659
     47 F           3.4524    1.1700   36.1988 F       1  UNL1       -0.1659
     48 F           5.7756   -0.6889   36.5825 F       1  UNL1       -0.1659
@<TRIPOS>BOND
     1    26    27    1
     2    27    25    1
     3    25    24    1
     4    24    23    1
     5    23    17    1
     6    17    18   ar
     7    18    19   ar
     8    19    20   ar
     9    20    21   ar
    10    21    22   ar
    11    22     9    1
    12     9    10    1
    13    10    11    1
    14    11    12    1
    15    12    13   am
    16    13    14    2
    17    13     1    1
    18     1    38    1
    19    38    39    1
    20    39    40   ar
    21    40    41   ar
    22    41    42   ar
    23    42    45    1
    24    45    46    1
    25    45    47    1
    26    45    48    1
    27    42    43   ar
    28    43    44   ar
    29     1     2    1
    30     2     3    1
    31     3     4    1
    32     4     5    1
    33     5     6   am
    34     6     7    2
    35     6    28    1
    36    28    29   ar
    37    29    30   ar
    38    30    31   ar
    39    31    32   ar
    40    32    33   ar
    41    33    34    1
    42    34    35    1
    43    34    36    1
    44    34    37    1
    45     5     8    1
    46    12    15    1
    47    15    16    1
    48    22    17   ar
    49    16     9    1
    50     8     1    1
    51    44    39   ar
    52    33    28   ar
@<TRIPOS>MOLECULE
*****
 48 52 0 0 0
SMALL
GASTEIGER

@<TRIPOS>ATOM
      1 C           5.4785   -0.6498   27.9369 C.3     1  UNL1        0.2187
      2 C           6.1249    0.6910   27.7515 C.3     1  UNL1        0.0526
      3 C           5.6186    1.8796   28.5138 C.3     1  UNL1        0.0257
      4 C           4.4659    1.7273   29.4614 C.3     1  UNL1        0.0940
      5 N           3.8195    0.3864   29.6469 N.am    1  UNL1       -0.2720
      6 C           2.6668    0.2341   30.5945 C.2     1  UNL1        0.2506
      7 O           2.0204   -1.1067   30.7800 O.2     1  UNL1       -0.2699
      8 C           4.3258   -0.8021   28.8846 C.3     1  UNL1        0.1425
      9 N           5.3548   -2.2037   22.7582 N.pl3   1  UNL1       -0.3017
     10 C           4.2993   -1.8474   23.7626 C.3     1  UNL1        0.1124
     11 C           4.6924   -1.4482   25.1540 C.3     1  UNL1        0.1149
     12 N           6.1410   -1.4053   25.5411 N.am    1  UNL1       -0.2732
     13 C           6.5340   -1.0062   26.9325 C.2     1  UNL1        0.2637
     14 O           7.9826   -0.9633   27.3195 O.2     1  UNL1       -0.2711
     15 C           7.1965   -1.7617   24.5366 C.3     1  UNL1        0.1149
     16 C           6.8034   -2.1609   23.1451 C.3     1  UNL1        0.1124
     17 C           5.1181   -1.6308   20.2351 C.ar    1  UNL1        0.1518
     18 C           4.7250   -2.0300   18.8437 C.ar    1  UNL1        0.0382
     19 C           4.1756   -3.4014   18.5838 C.ar    1  UNL1        0.0032
     20 C           4.0192   -4.3735   19.7154 C.ar    1  UNL1        0.0015
     21 C           4.4123   -3.9743   21.1068 C.ar    1  UNL1        0.0176
     22 C           4.9617   -2.6029   21.3667 C.ar    1  UNL1        0.0824
     23 O           5.6676   -0.2595   20.4949 O.3     1  UNL1       -0.4715
     24 C           4.7336    0.8965   20.6985 C.3     1  UNL1        0.2374
     25 C           3.3273    0.6524   21.1597 C.3     1  UNL1        0.1894
     26 C           1.4247   -0.8104   20.1645 C.3     1  UNL1        0.1743
     27 O           2.2321    0.4538   20.1542 O.3     1  UNL1       -0.3471
     28 C           2.1605    1.4227   31.3568 C.ar    1  UNL1        0.0766
     29 C           2.7394    1.7542   32.7003 C.ar    1  UNL1        0.1033
     30 N           2.2331    2.9427   33.4626 N.ar    1  UNL1       -0.2422
     31 C           1.1479    3.7997   32.8814 C.ar    1  UNL1        0.0988
     32 C           0.5689    3.4682   31.5378 C.ar    1  UNL1        0.0247
     33 C           1.0752    2.2798   30.7756 C.ar    1  UNL1        0.0788
     34 C           0.4964    1.9482   29.4321 C.3     1  UNL1        0.4188
     35 F          -0.0826    1.6165   28.0886 F       1  UNL1       -0.1659
     36 F          -0.5093    1.0487   30.0875 F       1  UNL1       -0.1659
     37 F           1.5020    2.8477   28.7767 F       1  UNL1       -0.1659
     38 O           5.1987   -2.1144   27.7735 O.3     1  UNL1       -0.4722
     39 C           5.9259   -3.1160   28.6209 C.ar    1  UNL1        0.1390
     40 C           6.2327   -4.4788   28.0744 C.ar    1  UNL1        0.0369
     41 C           6.9599   -5.4804   28.9218 C.ar    1  UNL1        0.0070
     42 C           7.3803   -5.1192   30.3156 C.ar    1  UNL1        0.0716
     43 C           7.0736   -3.7564   30.8621 C.ar    1  UNL1        0.0070
     44 C           6.3464   -2.7548   30.0147 C.ar    1  UNL1        0.0369
     45 C           8.1075   -6.1207   31.1630 C.3     1  UNL1        0.4186
     46 F           8.8348   -7.1222   32.0104 F       1  UNL1       -0.1659
     47 F           9.2591   -6.0975   30.2020 F       1  UNL1       -0.1659
     48 F           6.9561   -6.1439   32.1240 F       1  UNL1       -0.1659
@<TRIPOS>BOND
     1    26    27    1
     2    27    25    1
     3    25    24    1
     4    24    23    1
     5    23    17    1
     6    17    18   ar
     7    18    19   ar
     8    19    20   ar
     9    20    21   ar
    10    21    22   ar
    11    22     9    1
    12     9    10    1
    13    10    11    1
    14    11    12    1
    15    12    13   am
    16    13    14    2
    17    13     1    1
    18     1    38    1
    19    38    39    1
    20    39    40   ar
    21    40    41   ar
    22    41    42   ar
    23    42    45    1
    24    45    46    1
    25    45    47    1
    26    45    48    1
    27    42    43   ar
    28    43    44   ar
    29     1     2    1
    30     2     3    1
    31     3     4    1
    32     4     5    1
    33     5     6   am
    34     6     7    2
    35     6    28    1
    36    28    29   ar
    37    29    30   ar
    38    30    31   ar
    39    31    32   ar
    40    32    33   ar
    41    33    34    1
    42    34    35    1
    43    34    36    1
    44    34    37    1
    45     5     8    1
    46    12    15    1
    47    15    16    1
    48    22    17   ar
    49    16     9    1
    50     8     1    1
    51    44    39   ar
    52    33    28   ar
@<TRIPOS>MOLECULE
*****
 48 52 0 0 0
SMALL
GASTEIGER

@<TRIPOS>ATOM
      1 C           2.5878    1.7696   22.2545 C.3     1  UNL1        0.2187
      2 C           3.4272    2.8895   21.7149 C.3     1  UNL1        0.0526
      3 C           4.7340    2.5904   21.0421 C.3     1  UNL1        0.0257
      4 C           5.2014    1.1713   20.9088 C.3     1  UNL1        0.0940
      5 N           4.3620    0.0513   21.4484 N.am    1  UNL1       -0.2720
      6 C           4.8294   -1.3677   21.3152 C.2     1  UNL1        0.2506
      7 O           3.9900   -2.4876   21.8548 O.2     1  UNL1       -0.2699
      8 C           3.0552    0.3506   22.1213 C.3     1  UNL1        0.1425
      9 N          -2.1584    3.6353   20.4539 N.pl3   1  UNL1       -0.3017
     10 C          -1.2954    2.4639   20.0892 C.3     1  UNL1        0.1124
     11 C          -0.0010    2.2325   20.8110 C.3     1  UNL1        0.1149
     12 N           0.4304    3.1725   21.8974 N.am    1  UNL1       -0.2732
     13 C           1.7248    2.9410   22.6192 C.2     1  UNL1        0.2637
     14 O           2.1562    3.8810   23.7056 O.2     1  UNL1       -0.2711
     15 C          -0.4326    4.3439   22.2621 C.3     1  UNL1        0.1149
     16 C          -1.7271    4.5753   21.5403 C.3     1  UNL1        0.1124
     17 C          -4.7396    3.3700   20.3217 C.ar    1  UNL1        0.1518
     18 C          -6.0339    3.6014   19.5999 C.ar    1  UNL1        0.0382
     19 C          -6.0416    4.3296   18.2884 C.ar    1  UNL1        0.0032
     20 C          -4.7549    4.8263   17.6988 C.ar    1  UNL1        0.0015
     21 C          -3.4605    4.5948   18.4207 C.ar    1  UNL1        0.0176
     22 C          -3.4529    3.8667   19.7321 C.ar    1  UNL1        0.0824
     23 O          -4.7319    2.6419   21.6331 O.3     1  UNL1       -0.4715
     24 C          -5.2451    3.3184   22.8695 C.3     1  UNL1        0.2374
     25 C          -4.3813    3.4001   24.0932 C.3     1  UNL1        0.1894
     26 C          -4.3465    4.1631   26.5765 C.3     1  UNL1        0.1743
     27 O          -5.0099    3.4200   25.4550 O.3     1  UNL1       -0.3471
     28 C           6.1362   -1.6669   20.6423 C.ar    1  UNL1        0.0766
     29 C           7.3926   -1.7681   21.4555 C.ar    1  UNL1        0.1033
     30 N           8.6994   -2.0673   20.7826 N.ar    1  UNL1       -0.2422
     31 C           8.7499   -2.2652   19.2967 C.ar    1  UNL1        0.0988
     32 C           7.4934   -2.1640   18.4834 C.ar    1  UNL1        0.0247
     33 C           6.1867   -1.8648   19.1562 C.ar    1  UNL1        0.0788
     34 C           4.9303   -1.7636   18.3431 C.3     1  UNL1        0.4188
     35 F           3.6738   -1.6623   17.5299 F       1  UNL1       -0.1659
     36 F           5.2283   -0.3206   18.0624 F       1  UNL1       -0.1659
     37 F           4.6322   -3.2066   18.6238 F       1  UNL1       -0.1659
     38 O           1.4486    1.0566   22.9208 O.3     1  UNL1       -0.4722
     39 C           1.3697    1.0037   24.4178 C.ar    1  UNL1        0.1390
     40 C           0.0721    1.2957   25.1112 C.ar    1  UNL1        0.0369
     41 C          -0.0069    1.2428   26.6082 C.ar    1  UNL1        0.0070
     42 C           1.2118    0.8980   27.4118 C.ar    1  UNL1        0.0716
     43 C           2.5095    0.6060   26.7184 C.ar    1  UNL1        0.0070
     44 C           2.5884    0.6588   25.2214 C.ar    1  UNL1        0.0369
     45 C           1.1330    0.8451   28.9087 C.3     1  UNL1        0.4186
     46 F           1.0541    0.7922   30.4058 F       1  UNL1       -0.1659
     47 F           0.6074    2.2498   28.9306 F       1  UNL1       -0.1659
     48 F           1.6586   -0.5596   28.8869 F       1  UNL1       -0.1659
@<TRIPOS>BOND
     1    26    27    1
     2    27    25    1
     3    25    24    1
     4    24    23    1
     5    23    17    1
     6    17    18   ar
     7    18    19   ar
     8    19    20   ar
     9    20    21   ar
    10    21    22   ar
    11    22     9    1
    12     9    10    1
    13    10    11    1
    14    11    12    1
    15    12    13   am
    16    13    14    2
    17    13     1    1
    18     1    38    1
    19    38    39    1
    20    39    40   ar
    21    40    41   ar
    22    41    42   ar
    23    42    45    1
    24    45    46    1
    25    45    47    1
    26    45    48    1
    27    42    43   ar
    28    43    44   ar
    29     1     2    1
    30     2     3    1
    31     3     4    1
    32     4     5    1
    33     5     6   am
    34     6     7    2
    35     6    28    1
    36    28    29   ar
    37    29    30   ar
    38    30    31   ar
    39    31    32   ar
    40    32    33   ar
    41    33    34    1
    42    34    35    1
    43    34    36    1
    44    34    37    1
    45     5     8    1
    46    12    15    1
    47    15    16    1
    48    22    17   ar
    49    16     9    1
    50     8     1    1
    51    44    39   ar
    52    33    28   ar
@<TRIPOS>MOLECULE
*****
 48 52 0 0 0
SMALL
GASTEIGER

@<TRIPOS>ATOM
      1 C           3.5104    0.8946   23.3508 C.3     1  UNL1        0.2187
      2 C           4.0537    2.2926   23.3721 C.3     1  UNL1        0.0526
      3 C           3.3608    3.3783   22.6031 C.3     1  UNL1        0.0257
      4 C           2.1247    3.0660   21.8129 C.3     1  UNL1        0.0940
      5 N           1.5814    1.6679   21.7916 N.am    1  UNL1       -0.2720
      6 C           0.3453    1.3556   21.0014 C.2     1  UNL1        0.2506
      7 O          -0.1980   -0.0424   20.9801 O.2     1  UNL1       -0.2699
      8 C           2.2743    0.5823   22.5606 C.3     1  UNL1        0.1425
      9 N           4.1490    0.3425   28.6928 N.pl3   1  UNL1       -0.3017
     10 C           2.9579    0.5395   27.8026 C.3     1  UNL1        0.1124
     11 C           3.1421    0.6579   26.3187 C.3     1  UNL1        0.1149
     12 N           4.5173    0.5793   25.7249 N.am    1  UNL1       -0.2732
     13 C           4.7015    0.6977   24.2410 C.2     1  UNL1        0.2637
     14 O           6.0767    0.6191   23.6473 O.2     1  UNL1       -0.2711
     15 C           5.7084    0.3823   26.6151 C.3     1  UNL1        0.1149
     16 C           5.5243    0.2640   28.0991 C.3     1  UNL1        0.1124
     17 C           3.4638    1.3970   30.9663 C.ar    1  UNL1        0.1518
     18 C           3.2796    1.2786   32.4502 C.ar    1  UNL1        0.0382
     19 C           3.5965   -0.0127   33.1446 C.ar    1  UNL1        0.0032
     20 C           4.0976   -1.1855   32.3551 C.ar    1  UNL1        0.0015
     21 C           4.2818   -1.0671   30.8712 C.ar    1  UNL1        0.0176
     22 C           3.9648    0.2242   30.1768 C.ar    1  UNL1        0.0824
     23 O           3.1469    2.6883   30.2719 O.3     1  UNL1       -0.4715
     24 C           1.7360    2.9944   29.8649 C.3     1  UNL1        0.2374
     25 C           0.5900    2.3659   30.6009 C.3     1  UNL1        0.1894
     26 C          -0.6259    0.8565   28.8707 C.3     1  UNL1        0.1743
     27 O           0.0800    1.0181   30.1843 O.3     1  UNL1       -0.3471
     28 C          -0.3475    2.4413   20.2324 C.ar    1  UNL1        0.0766
     29 C          -1.5682    3.1017   20.8016 C.ar    1  UNL1        0.1033
     30 N          -2.2610    4.1873   20.0326 N.ar    1  UNL1       -0.2422
     31 C          -1.7333    4.6126   18.6945 C.ar    1  UNL1        0.0988
     32 C          -0.5125    3.9522   18.1253 C.ar    1  UNL1        0.0247
     33 C           0.1802    2.8666   18.8943 C.ar    1  UNL1        0.0788
     34 C           1.4009    2.2062   18.3252 C.3     1  UNL1        0.4188
     35 F           2.6216    1.5458   17.7560 F       1  UNL1       -0.1659
     36 F           2.1968    3.4500   18.5890 F       1  UNL1       -0.1659
     37 F           0.6050    0.9624   18.0613 F       1  UNL1       -0.1659
     38 O           3.3808   -0.5718   23.6387 O.3     1  UNL1       -0.4722
     39 C           3.6641   -1.5757   22.5607 C.ar    1  UNL1        0.1390
     40 C           4.3433   -2.8693   22.9004 C.ar    1  UNL1        0.0369
     41 C           4.6266   -3.8731   21.8224 C.ar    1  UNL1        0.0070
     42 C           4.2309   -3.5834   20.4049 C.ar    1  UNL1        0.0716
     43 C           3.5518   -2.2898   20.0653 C.ar    1  UNL1        0.0070
     44 C           3.2684   -1.2859   21.1432 C.ar    1  UNL1        0.0369
     45 C           4.5143   -4.5872   19.3269 C.3     1  UNL1        0.4186
     46 F           4.7977   -5.5910   18.2489 F       1  UNL1       -0.1659
     47 F           5.9758   -4.5324   19.6602 F       1  UNL1       -0.1659
     48 F           3.0528   -4.6420   18.9936 F       1  UNL1       -0.1659
@<TRIPOS>BOND
     1    26    27    1
     2    27    25    1
     3    25    24    1
     4    24    23    1
     5    23    17    1
     6    17    18   ar
     7    18    19   ar
     8    19    20   ar
     9    20    21   ar
    10    21    22   ar
    11    22     9    1
    12     9    10    1
    13    10    11    1
    14    11    12    1
    15    12    13   am
    16    13    14    2
    17    13     1    1
    18     1    38    1
    19    38    39    1
    20    39    40   ar
    21    40    41   ar
    22    41    42   ar
    23    42    45    1
    24    45    46    1
    25    45    47    1
    26    45    48    1
    27    42    43   ar
    28    43    44   ar
    29     1     2    1
    30     2     3    1
    31     3     4    1
    32     4     5    1
    33     5     6   am
    34     6     7    2
    35     6    28    1
    36    28    29   ar
    37    29    30   ar
    38    30    31   ar
    39    31    32   ar
    40    32    33   ar
    41    33    34    1
    42    34    35    1
    43    34    36    1
    44    34    37    1
    45     5     8    1
    46    12    15    1
    47    15    16    1
    48    22    17   ar
    49    16     9    1
    50     8     1    1
    51    44    39   ar
    52    33    28   ar
@<TRIPOS>MOLECULE
*****
 48 52 0 0 0
SMALL
GASTEIGER

@<TRIPOS>ATOM
      1 C           3.6119    0.7914   23.4342 C.3     1  UNL1        0.2187
      2 C           4.1575    2.1879   23.4806 C.3     1  UNL1        0.0526
      3 C           3.4684    3.2878   22.7286 C.3     1  UNL1        0.0257
      4 C           2.2336    2.9911   21.9303 C.3     1  UNL1        0.0940
      5 N           1.6880    1.5946   21.8839 N.am    1  UNL1       -0.2720
      6 C           0.4533    1.2979   21.0856 C.2     1  UNL1        0.2506
      7 O          -0.0924   -0.0985   21.0391 O.2     1  UNL1       -0.2699
      8 C           2.3772    0.4948   22.6358 C.3     1  UNL1        0.1425
      9 N           4.2387    0.1648   28.7694 N.pl3   1  UNL1       -0.3017
     10 C           3.0500    0.3790   27.8799 C.3     1  UNL1        0.1124
     11 C           3.2373    0.5165   26.3980 C.3     1  UNL1        0.1149
     12 N           4.6133    0.4398   25.8056 N.am    1  UNL1       -0.2732
     13 C           4.8006    0.5773   24.3237 C.2     1  UNL1        0.2637
     14 O           6.1765    0.5006   23.7314 O.2     1  UNL1       -0.2711
     15 C           5.8019    0.2256   26.6951 C.3     1  UNL1        0.1149
     16 C           5.6146    0.0881   28.1770 C.3     1  UNL1        0.1124
     17 C           4.6947   -1.1111   30.9862 C.ar    1  UNL1        0.1518
     18 C           4.5073   -1.2486   32.4680 C.ar    1  UNL1        0.0382
     19 C           3.6767   -0.2476   33.2150 C.ar    1  UNL1        0.0032
     20 C           3.0333    0.8908   32.4802 C.ar    1  UNL1        0.0015
     21 C           3.2207    1.0283   30.9983 C.ar    1  UNL1        0.0176
     22 C           4.0514    0.0273   30.2513 C.ar    1  UNL1        0.0824
     23 O           5.5254   -2.1121   30.2392 O.3     1  UNL1       -0.4715
     24 C           6.7741   -2.6637   30.8608 C.3     1  UNL1        0.2374
     25 C           6.8895   -4.1340   31.1341 C.3     1  UNL1        0.1894
     26 C           7.5961   -6.0475   29.5250 C.3     1  UNL1        0.1743
     27 O           6.5425   -5.1255   30.0632 O.3     1  UNL1       -0.3471
     28 C          -0.2359    2.3978   20.3336 C.ar    1  UNL1        0.0766
     29 C          -1.4268    3.0846   20.9336 C.ar    1  UNL1        0.1033
     30 N          -2.1160    4.1845   20.1816 N.ar    1  UNL1       -0.2422
     31 C          -1.6143    4.5975   18.8298 C.ar    1  UNL1        0.0988
     32 C          -0.4233    3.9106   18.2297 C.ar    1  UNL1        0.0247
     33 C           0.2658    2.8108   18.9816 C.ar    1  UNL1        0.0788
     34 C           1.4567    2.1240   18.3817 C.3     1  UNL1        0.4188
     35 F           2.6478    1.4371   17.7818 F       1  UNL1       -0.1659
     36 F           2.3075    3.3161   18.7057 F       1  UNL1       -0.1659
     37 F           0.6060    0.9318   18.0577 F       1  UNL1       -0.1659
     38 O           3.4792   -0.6794   23.6967 O.3     1  UNL1       -0.4722
     39 C           3.7409   -1.6644   22.5960 C.ar    1  UNL1        0.1390
     40 C           4.4190   -2.9671   22.9009 C.ar    1  UNL1        0.0369
     41 C           4.6807   -3.9520   21.8002 C.ar    1  UNL1        0.0070
     42 C           4.2643   -3.6342   20.3947 C.ar    1  UNL1        0.0716
     43 C           3.5861   -2.3315   20.0898 C.ar    1  UNL1        0.0070
     44 C           3.3244   -1.3466   21.1905 C.ar    1  UNL1        0.0369
     45 C           4.5259   -4.6191   19.2940 C.3     1  UNL1        0.4186
     46 F           4.7875   -5.6040   18.1933 F       1  UNL1       -0.1659
     47 F           3.4873   -5.5365   19.8681 F       1  UNL1       -0.1659
     48 F           5.5645   -3.7017   18.7199 F       1  UNL1       -0.1659
@<TRIPOS>BOND
     1    26    27    1
     2    27    25    1
     3    25    24    1
     4    24    23    1
     5    23    17    1
     6    17    18   ar
     7    18    19   ar
     8    19    20   ar
     9    20    21   ar
    10    21    22   ar
    11    22     9    1
    12     9    10    1
    13    10    11    1
    14    11    12    1
    15    12    13   am
    16    13    14    2
    17    13     1    1
    18     1    38    1
    19    38    39    1
    20    39    40   ar
    21    40    41   ar
    22    41    42   ar
    23    42    45    1
    24    45    46    1
    25    45    47    1
    26    45    48    1
    27    42    43   ar
    28    43    44   ar
    29     1     2    1
    30     2     3    1
    31     3     4    1
    32     4     5    1
    33     5     6   am
    34     6     7    2
    35     6    28    1
    36    28    29   ar
    37    29    30   ar
    38    30    31   ar
    39    31    32   ar
    40    32    33   ar
    41    33    34    1
    42    34    35    1
    43    34    36    1
    44    34    37    1
    45     5     8    1
    46    12    15    1
    47    15    16    1
    48    22    17   ar
    49    16     9    1
    50     8     1    1
    51    44    39   ar
    52    33    28   ar
@<TRIPOS>MOLECULE
*****
 48 52 0 0 0
SMALL
GASTEIGER

@<TRIPOS>ATOM
      1 C           5.2053    0.5135   24.0958 C.3     1  UNL1        0.2187
      2 C           5.1976    1.9820   24.4014 C.3     1  UNL1        0.0526
      3 C           4.2302    2.8889   23.7001 C.3     1  UNL1        0.0257
      4 C           3.2706    2.3273   22.6933 C.3     1  UNL1        0.0940
      5 N           3.2783    0.8587   22.3877 N.am    1  UNL1       -0.2720
      6 C           2.3187    0.2971   21.3810 C.2     1  UNL1        0.2506
      7 O           2.3264   -1.1714   21.0754 O.2     1  UNL1       -0.2699
      8 C           4.2457   -0.0481   23.0890 C.3     1  UNL1        0.1425
      9 N           5.4814   -0.6884   29.3616 N.pl3   1  UNL1       -0.3017
     10 C           4.3871   -0.7471   28.3374 C.3     1  UNL1        0.1124
     11 C           4.6598   -0.3269   26.9236 C.3     1  UNL1        0.1149
     12 N           6.0269    0.1520   26.5339 N.am    1  UNL1       -0.2732
     13 C           6.2996    0.5722   25.1200 C.2     1  UNL1        0.2637
     14 O           7.6667    1.0511   24.7304 O.2     1  UNL1       -0.2711
     15 C           7.1212    0.2107   27.5581 C.3     1  UNL1        0.1149
     16 C           6.8485   -0.2095   28.9720 C.3     1  UNL1        0.1124
     17 C           5.7348   -2.4182   31.2835 C.ar    1  UNL1        0.1518
     18 C           5.4620   -2.8383   32.6974 C.ar    1  UNL1        0.0382
     19 C           4.6631   -1.9489   33.6033 C.ar    1  UNL1        0.0032
     20 C           4.1370   -0.6393   33.0953 C.ar    1  UNL1        0.0015
     21 C           4.4098   -0.2192   31.6814 C.ar    1  UNL1        0.0176
     22 C           5.2087   -1.1086   30.7756 C.ar    1  UNL1        0.0824
     23 O           6.5337   -3.3076   30.3777 O.3     1  UNL1       -0.4715
     24 C           6.8373   -4.7180   30.7883 C.3     1  UNL1        0.2374
     25 C           7.2703   -5.7216   29.7610 C.3     1  UNL1        0.1894
     26 C           6.5708   -5.7333   27.2589 C.3     1  UNL1        0.1743
     27 O           7.5068   -5.2900   28.3440 O.3     1  UNL1       -0.3471
     28 C           1.3513    1.2040   20.6797 C.ar    1  UNL1        0.0766
     29 C           0.0494    1.5613   21.3335 C.ar    1  UNL1        0.1033
     30 N          -0.9180    2.4682   20.6322 N.ar    1  UNL1       -0.2422
     31 C          -0.5835    3.0178   19.2772 C.ar    1  UNL1        0.0988
     32 C           0.7185    2.6604   18.6234 C.ar    1  UNL1        0.0247
     33 C           1.6858    1.7536   19.3246 C.ar    1  UNL1        0.0788
     34 C           2.9877    1.3963   18.6710 C.3     1  UNL1        0.4188
     35 F           4.2896    1.0389   18.0172 F       1  UNL1       -0.1659
     36 F           2.3278    0.2323   17.9929 F       1  UNL1       -0.1659
     37 F           3.6477    2.5602   19.3489 F       1  UNL1       -0.1659
     38 O           5.5931   -0.9346   24.1460 O.3     1  UNL1       -0.4722
     39 C           5.4087   -1.8028   22.9367 C.ar    1  UNL1        0.1390
     40 C           6.0611   -1.4291   21.6387 C.ar    1  UNL1        0.0369
     41 C           5.8767   -2.2972   20.4294 C.ar    1  UNL1        0.0070
     42 C           5.0399   -3.5390   20.5180 C.ar    1  UNL1        0.0716
     43 C           4.3876   -3.9126   21.8160 C.ar    1  UNL1        0.0070
     44 C           4.5720   -3.0445   23.0253 C.ar    1  UNL1        0.0369
     45 C           4.8555   -4.4071   19.3088 C.3     1  UNL1        0.4186
     46 F           4.6711   -5.2752   18.0995 F       1  UNL1       -0.1659
     47 F           5.8603   -3.5806   18.5623 F       1  UNL1       -0.1659
     48 F           3.8507   -5.2336   20.0553 F       1  UNL1       -0.1659
@<TRIPOS>BOND
     1    26    27    1
     2    27    25    1
     3    25    24    1
     4    24    23    1
     5    23    17    1
     6    17    18   ar
     7    18    19   ar
     8    19    20   ar
     9    20    21   ar
    10    21    22   ar
    11    22     9    1
    12     9    10    1
    13    10    11    1
    14    11    12    1
    15    12    13   am
    16    13    14    2
    17    13     1    1
    18     1    38    1
    19    38    39    1
    20    39    40   ar
    21    40    41   ar
    22    41    42   ar
    23    42    45    1
    24    45    46    1
    25    45    47    1
    26    45    48    1
    27    42    43   ar
    28    43    44   ar
    29     1     2    1
    30     2     3    1
    31     3     4    1
    32     4     5    1
    33     5     6   am
    34     6     7    2
    35     6    28    1
    36    28    29   ar
    37    29    30   ar
    38    30    31   ar
    39    31    32   ar
    40    32    33   ar
    41    33    34    1
    42    34    35    1
    43    34    36    1
    44    34    37    1
    45     5     8    1
    46    12    15    1
    47    15    16    1
    48    22    17   ar
    49    16     9    1
    50     8     1    1
    51    44    39   ar
    52    33    28   ar
@<TRIPOS>MOLECULE
*****
 48 52 0 0 0
SMALL
GASTEIGER

@<TRIPOS>ATOM
      1 C           3.3898    1.1736   22.7854 C.3     1  UNL1        0.2187
      2 C           4.0715    2.5082   22.7218 C.3     1  UNL1        0.0526
      3 C           3.4685    3.6207   21.9162 C.3     1  UNL1        0.0257
      4 C           2.1839    3.3985   21.1744 C.3     1  UNL1        0.0940
      5 N           1.5022    2.0637   21.2380 N.am    1  UNL1       -0.2720
      6 C           0.2176    1.8416   20.4962 C.2     1  UNL1        0.2506
      7 O          -0.4641    0.5069   20.5598 O.2     1  UNL1       -0.2699
      8 C           2.1052    0.9514   22.0436 C.3     1  UNL1        0.1425
      9 N           4.0607    0.4019   28.0962 N.pl3   1  UNL1       -0.3017
     10 C           2.8691    0.6764   27.2274 C.3     1  UNL1        0.1124
     11 C           3.0426    0.8421   25.7468 C.3     1  UNL1        0.1149
     12 N           4.4079    0.7334   25.1348 N.am    1  UNL1       -0.2732
     13 C           4.5814    0.8991   23.6542 C.2     1  UNL1        0.2637
     14 O           5.9466    0.7905   23.0423 O.2     1  UNL1       -0.2711
     15 C           5.5995    0.4590   26.0036 C.3     1  UNL1        0.1149
     16 C           5.4259    0.2933   27.4843 C.3     1  UNL1        0.1124
     17 C           3.1018    1.2478   30.3579 C.ar    1  UNL1        0.1518
     18 C           2.9282    1.0821   31.8385 C.ar    1  UNL1        0.0382
     19 C           3.5399   -0.0953   32.5382 C.ar    1  UNL1        0.0032
     20 C           4.3252   -1.1070   31.7573 C.ar    1  UNL1        0.0015
     21 C           4.4987   -0.9412   30.2766 C.ar    1  UNL1        0.0176
     22 C           3.8871    0.2362   29.5769 C.ar    1  UNL1        0.0824
     23 O           2.4902    2.4253   29.6582 O.3     1  UNL1       -0.4715
     24 C           1.0011    2.6055   29.6553 C.3     1  UNL1        0.2374
     25 C           0.1112    1.5031   30.1482 C.3     1  UNL1        0.1894
     26 C          -0.9930   -0.3163   28.6581 C.3     1  UNL1        0.1743
     27 O           0.1589    0.1528   29.4967 O.3     1  UNL1       -0.3471
     28 C          -0.3854    2.9540   19.6906 C.ar    1  UNL1        0.0766
     29 C           0.0377    3.1637   18.2669 C.ar    1  UNL1        0.1033
     30 N          -0.5653    4.2761   17.4613 N.ar    1  UNL1       -0.2422
     31 C          -1.5913    5.1789   18.0795 C.ar    1  UNL1        0.0988
     32 C          -2.0144    4.9692   19.5033 C.ar    1  UNL1        0.0247
     33 C          -1.4115    3.8569   20.3088 C.ar    1  UNL1        0.0788
     34 C          -1.8345    3.6472   21.7325 C.3     1  UNL1        0.4188
     35 F          -2.2576    3.4375   23.1564 F       1  UNL1       -0.1659
     36 F          -0.6915    4.4997   22.1978 F       1  UNL1       -0.1659
     37 F          -2.9777    2.7946   21.2674 F       1  UNL1       -0.1659
     38 O           3.1220   -0.2564   23.1508 O.3     1  UNL1       -0.4722
     39 C           3.4588   -1.3531   22.1845 C.ar    1  UNL1        0.1390
     40 C           3.0247   -1.2504   20.7524 C.ar    1  UNL1        0.0369
     41 C           3.3615   -2.3471   19.7860 C.ar    1  UNL1        0.0070
     42 C           4.1324   -3.5465   20.2518 C.ar    1  UNL1        0.0716
     43 C           4.5666   -3.6493   21.6839 C.ar    1  UNL1        0.0070
     44 C           4.2297   -2.5526   22.6502 C.ar    1  UNL1        0.0369
     45 C           4.4692   -4.6432   19.2855 C.3     1  UNL1        0.4186
     46 F           4.8060   -5.7400   18.3192 F       1  UNL1       -0.1659
     47 F           3.0427   -4.6734   18.8226 F       1  UNL1       -0.1659
     48 F           5.8957   -4.6132   19.7484 F       1  UNL1       -0.1659
@<TRIPOS>BOND
     1    26    27    1
     2    27    25    1
     3    25    24    1
     4    24    23    1
     5    23    17    1
     6    17    18   ar
     7    18    19   ar
     8    19    20   ar
     9    20    21   ar
    10    21    22   ar
    11    22     9    1
    12     9    10    1
    13    10    11    1
    14    11    12    1
    15    12    13   am
    16    13    14    2
    17    13     1    1
    18     1    38    1
    19    38    39    1
    20    39    40   ar
    21    40    41   ar
    22    41    42   ar
    23    42    45    1
    24    45    46    1
    25    45    47    1
    26    45    48    1
    27    42    43   ar
    28    43    44   ar
    29     1     2    1
    30     2     3    1
    31     3     4    1
    32     4     5    1
    33     5     6   am
    34     6     7    2
    35     6    28    1
    36    28    29   ar
    37    29    30   ar
    38    30    31   ar
    39    31    32   ar
    40    32    33   ar
    41    33    34    1
    42    34    35    1
    43    34    36    1
    44    34    37    1
    45     5     8    1
    46    12    15    1
    47    15    16    1
    48    22    17   ar
    49    16     9    1
    50     8     1    1
    51    44    39   ar
    52    33    28   ar
@<TRIPOS>MOLECULE
*****
 48 52 0 0 0
SMALL
GASTEIGER

@<TRIPOS>ATOM
      1 C           2.9294    2.0778   26.3209 C.3     1  UNL1        0.2187
      2 C           4.3387    2.5291   26.5661 C.3     1  UNL1        0.0526
      3 C           4.9733    2.3111   27.9077 C.3     1  UNL1        0.0257
      4 C           4.1986    1.6420   29.0040 C.3     1  UNL1        0.0940
      5 N           2.7892    1.1907   28.7588 N.am    1  UNL1       -0.2720
      6 C           2.0145    0.5215   29.8551 C.2     1  UNL1        0.2506
      7 O           0.6051    0.0703   29.6099 O.2     1  UNL1       -0.2699
      8 C           2.1547    1.4086   27.4172 C.3     1  UNL1        0.1425
      9 N           4.3486   -0.0483   21.5548 N.pl3   1  UNL1       -0.3017
     10 C           4.0242   -0.6310   22.8984 C.3     1  UNL1        0.1124
     11 C           3.6593    0.2719   24.0392 C.3     1  UNL1        0.1149
     12 N           3.6187    1.7576   23.8365 N.am    1  UNL1       -0.2732
     13 C           3.2538    2.6605   24.9773 C.2     1  UNL1        0.2637
     14 O           3.2133    4.1462   24.7746 O.2     1  UNL1       -0.2711
     15 C           3.9432    2.3404   22.4929 C.3     1  UNL1        0.1149
     16 C           4.3081    1.4374   21.3521 C.3     1  UNL1        0.1124
     17 C           3.6499   -1.7469   19.7173 C.ar    1  UNL1        0.1518
     18 C           4.0148   -2.6499   18.5765 C.ar    1  UNL1        0.0382
     19 C           5.4436   -2.7571   18.1324 C.ar    1  UNL1        0.0032
     20 C           6.5073   -1.9615   18.8290 C.ar    1  UNL1        0.0015
     21 C           6.1423   -1.0585   19.9698 C.ar    1  UNL1        0.0176
     22 C           4.7136   -0.9513   20.4140 C.ar    1  UNL1        0.0824
     23 O           2.2212   -1.6397   20.1615 O.3     1  UNL1       -0.4715
     24 C           1.4050   -0.4405   19.7796 C.3     1  UNL1        0.2374
     25 C           0.7577    0.3958   20.8433 C.3     1  UNL1        0.1894
     26 C          -0.6405    2.5849   20.7870 C.3     1  UNL1        0.1743
     27 O          -0.5320    1.1066   20.5572 O.3     1  UNL1       -0.3471
     28 C           2.6491    0.3036   31.1967 C.ar    1  UNL1        0.0766
     29 C           3.3513   -0.9883   31.4932 C.ar    1  UNL1        0.1033
     30 N           3.9859   -1.2062   32.8348 N.ar    1  UNL1       -0.2422
     31 C           3.9183   -0.1323   33.8798 C.ar    1  UNL1        0.0988
     32 C           3.2160    1.1596   33.5833 C.ar    1  UNL1        0.0247
     33 C           2.5814    1.3775   32.2418 C.ar    1  UNL1        0.0788
     34 C           1.8792    2.6694   31.9452 C.3     1  UNL1        0.4188
     35 F           1.1769    3.9613   31.6486 F       1  UNL1       -0.1659
     36 F           3.1955    3.3099   31.6184 F       1  UNL1       -0.1659
     37 F           0.5627    2.0289   32.2720 F       1  UNL1       -0.1659
     38 O           1.6327    1.8289   25.6090 O.3     1  UNL1       -0.4722
     39 C           0.4126    2.6216   25.9740 C.ar    1  UNL1        0.1390
     40 C           0.5323    3.8033   26.8900 C.ar    1  UNL1        0.0369
     41 C          -0.6878    4.5960   27.2550 C.ar    1  UNL1        0.0070
     42 C          -2.0275    4.2069   26.7040 C.ar    1  UNL1        0.0716
     43 C          -2.1472    3.0251   25.7879 C.ar    1  UNL1        0.0070
     44 C          -0.9271    2.2325   25.4230 C.ar    1  UNL1        0.0369
     45 C          -3.2475    4.9994   27.0689 C.3     1  UNL1        0.4186
     46 F          -4.4677    5.7920   27.4338 F       1  UNL1       -0.1659
     47 F          -4.1152    3.9636   26.4174 F       1  UNL1       -0.1659
     48 F          -2.3800    6.0352   27.7203 F       1  UNL1       -0.1659
@<TRIPOS>BOND
     1    26    27    1
     2    27    25    1
     3    25    24    1
     4    24    23    1
     5    23    17    1
     6    17    18   ar
     7    18    19   ar
     8    19    20   ar
     9    20    21   ar
    10    21    22   ar
    11    22     9    1
    12     9    10    1
    13    10    11    1
    14    11    12    1
    15    12    13   am
    16    13    14    2
    17    13     1    1
    18     1    38    1
    19    38    39    1
    20    39    40   ar
    21    40    41   ar
    22    41    42   ar
    23    42    45    1
    24    45    46    1
    25    45    47    1
    26    45    48    1
    27    42    43   ar
    28    43    44   ar
    29     1     2    1
    30     2     3    1
    31     3     4    1
    32     4     5    1
    33     5     6   am
    34     6     7    2
    35     6    28    1
    36    28    29   ar
    37    29    30   ar
    38    30    31   ar
    39    31    32   ar
    40    32    33   ar
    41    33    34    1
    42    34    35    1
    43    34    36    1
    44    34    37    1
    45     5     8    1
    46    12    15    1
    47    15    16    1
    48    22    17   ar
    49    16     9    1
    50     8     1    1
    51    44    39   ar
    52    33    28   ar
