@<TRIPOS>MOLECULE
*****
 24 26 0 0 0
SMALL
GASTEIGER

@<TRIPOS>ATOM
      1 C          -8.9701  -17.1182   22.5243 C.3     1  UNL1        0.0847
      2 N          -8.2255  -18.1560   21.7377 N.3     1  UNL1       -0.2676
      3 C          -8.8452  -18.7536   20.5093 C.3     1  UNL1        0.0896
      4 C          -8.1007  -19.7914   19.7228 C.3     1  UNL1        0.0862
      5 N          -6.7365  -20.2315   20.1646 N.3     1  UNL1       -0.2951
      6 C          -6.1168  -19.6338   21.3929 C.3     1  UNL1        0.0862
      7 C          -6.8613  -18.5961   22.1795 C.3     1  UNL1        0.0896
      8 H          -6.1002  -20.0397   19.3908 H       1  UNL1        0.1233
      9 C         -10.4066  -17.3437   22.8922 C.ar    1  UNL1       -0.0075
     10 C         -10.7689  -18.4130   23.8798 C.ar    1  UNL1       -0.0030
     11 C         -12.2056  -18.6385   24.2478 C.ar    1  UNL1       -0.0003
     12 C         -13.2798  -17.7947   23.6282 C.ar    1  UNL1       -0.0000
     13 C         -12.9175  -16.7254   22.6406 C.ar    1  UNL1       -0.0003
     14 C         -11.4810  -16.4999   22.2726 C.ar    1  UNL1       -0.0030
     15 C          -8.2781  -15.8549   22.9428 C.3     1  UNL1        0.0500
     16 C          -6.3369  -15.5614   24.6445 C.ar    1  UNL1        0.1620
     17 C          -5.8618  -15.3994   26.0580 C.ar    1  UNL1        0.1735
     18 F          -4.3956  -15.2679   26.3461 F       1  UNL1       -0.2010
     19 C          -6.8530  -15.3689   27.1834 C.ar    1  UNL1        0.0328
     20 C          -8.3192  -15.5004   26.8953 C.ar    1  UNL1        0.0022
     21 C          -8.7942  -15.6624   25.4818 C.ar    1  UNL1       -0.0011
     22 C          -7.8031  -15.6929   24.3564 C.ar    1  UNL1        0.0157
     23 C          -4.2815  -16.6485   23.4852 C.3     1  UNL1        0.2526
     24 O          -5.3457  -15.5919   23.5189 O.3     1  UNL1       -0.4695
@<TRIPOS>BOND
     1    23    24    1
     2    24    16    1
     3    16    17   ar
     4    17    18    1
     5    17    19   ar
     6    19    20   ar
     7    20    21   ar
     8    21    22   ar
     9    22    15    1
    10    15     1    1
    11     1     9    1
    12     9    10   ar
    13    10    11   ar
    14    11    12   ar
    15    12    13   ar
    16    13    14   ar
    17     1     2    1
    18     2     3    1
    19     3     4    1
    20     4     5    1
    21     5     6    1
    22     6     7    1
    23    22    16   ar
    24    14     9   ar
    25     7     2    1
    26     5     8    1
@<TRIPOS>MOLECULE
*****
 24 26 0 0 0
SMALL
GASTEIGER

@<TRIPOS>ATOM
      1 C          -8.5867  -16.6539   23.4843 C.3     1  UNL1        0.0847
      2 N          -7.9334  -16.1037   24.7174 N.3     1  UNL1       -0.2676
      3 C          -6.4799  -15.7336   24.6944 C.3     1  UNL1        0.0896
      4 C          -5.8265  -15.1834   25.9274 C.3     1  UNL1        0.0862
      5 N          -6.6266  -15.0032   27.1833 N.3     1  UNL1       -0.2951
      6 C          -8.0801  -15.3733   27.2063 C.3     1  UNL1        0.0862
      7 C          -8.7334  -15.9235   25.9733 C.3     1  UNL1        0.0896
      8 H          -6.5705  -14.0148   27.4289 H       1  UNL1        0.1233
      9 C         -10.0005  -17.1517   23.5431 C.ar    1  UNL1       -0.0075
     10 C         -10.3318  -18.3763   24.3435 C.ar    1  UNL1       -0.0030
     11 C         -11.7456  -18.8741   24.4023 C.ar    1  UNL1       -0.0003
     12 C         -12.8281  -18.1472   23.6608 C.ar    1  UNL1       -0.0000
     13 C         -12.4968  -16.9226   22.8605 C.ar    1  UNL1       -0.0003
     14 C         -11.0831  -16.4248   22.8016 C.ar    1  UNL1       -0.0030
     15 C          -7.8263  -16.7064   22.1924 C.3     1  UNL1        0.0500
     16 C          -7.9607  -18.7844   20.6387 C.ar    1  UNL1        0.1620
     17 C          -7.3900  -20.0851   20.1566 C.ar    1  UNL1        0.1735
     18 F          -8.0952  -20.8623   19.0849 F       1  UNL1       -0.2010
     19 C          -6.1141  -20.6086   20.7464 C.ar    1  UNL1        0.0328
     20 C          -5.4088  -19.8314   21.8181 C.ar    1  UNL1        0.0022
     21 C          -5.9796  -18.5307   22.3001 C.ar    1  UNL1       -0.0011
     22 C          -7.2555  -18.0072   21.7104 C.ar    1  UNL1        0.0157
     23 C         -10.5210  -19.0073   20.2572 C.3     1  UNL1        0.2526
     24 O          -9.2367  -18.2608   20.0489 O.3     1  UNL1       -0.4695
@<TRIPOS>BOND
     1    23    24    1
     2    24    16    1
     3    16    17   ar
     4    17    18    1
     5    17    19   ar
     6    19    20   ar
     7    20    21   ar
     8    21    22   ar
     9    22    15    1
    10    15     1    1
    11     1     9    1
    12     9    10   ar
    13    10    11   ar
    14    11    12   ar
    15    12    13   ar
    16    13    14   ar
    17     1     2    1
    18     2     3    1
    19     3     4    1
    20     4     5    1
    21     5     6    1
    22     6     7    1
    23    22    16   ar
    24    14     9   ar
    25     7     2    1
    26     5     8    1
@<TRIPOS>MOLECULE
*****
 24 26 0 0 0
SMALL
GASTEIGER

@<TRIPOS>ATOM
      1 C          -8.6434  -16.6751   23.4817 C.3     1  UNL1        0.0847
      2 N         -10.0681  -17.1420   23.5296 N.3     1  UNL1       -0.2676
      3 C         -11.1400  -16.3513   22.8398 C.3     1  UNL1        0.0896
      4 C         -12.5647  -16.8181   22.8877 C.3     1  UNL1        0.0862
      5 N         -12.9174  -18.0757   23.6253 N.3     1  UNL1       -0.2951
      6 C         -11.8455  -18.8664   24.3151 C.3     1  UNL1        0.0862
      7 C         -10.4209  -18.3996   24.2672 C.3     1  UNL1        0.0896
      8 H         -13.3553  -18.7009   22.9488 H       1  UNL1        0.1233
      9 C          -7.9710  -16.1891   24.7314 C.ar    1  UNL1       -0.0075
     10 C          -6.5305  -15.7724   24.6945 C.ar    1  UNL1       -0.0030
     11 C          -5.8581  -15.2864   25.9443 C.ar    1  UNL1       -0.0003
     12 C          -6.6262  -15.2171   27.2308 C.ar    1  UNL1       -0.0000
     13 C          -8.0667  -15.6339   27.2677 C.ar    1  UNL1       -0.0003
     14 C          -8.7391  -16.1199   26.0180 C.ar    1  UNL1       -0.0030
     15 C          -7.8911  -16.6943   22.1842 C.3     1  UNL1        0.0500
     16 C          -8.0252  -18.7519   20.6036 C.ar    1  UNL1        0.1620
     17 C          -7.4450  -20.0370   20.0920 C.ar    1  UNL1        0.1735
     18 F          -8.1595  -20.8095   19.0230 F       1  UNL1       -0.2010
     19 C          -6.1502  -20.5496   20.6494 C.ar    1  UNL1        0.0328
     20 C          -5.4357  -19.7771   21.7184 C.ar    1  UNL1        0.0022
     21 C          -6.0159  -18.4920   22.2300 C.ar    1  UNL1       -0.0011
     22 C          -7.3107  -17.9794   21.6726 C.ar    1  UNL1        0.0157
     23 C         -10.5929  -18.9947   20.2899 C.3     1  UNL1        0.2526
     24 O          -9.3201  -18.2393   20.0462 O.3     1  UNL1       -0.4695
@<TRIPOS>BOND
     1    23    24    1
     2    24    16    1
     3    16    17   ar
     4    17    18    1
     5    17    19   ar
     6    19    20   ar
     7    20    21   ar
     8    21    22   ar
     9    22    15    1
    10    15     1    1
    11     1     9    1
    12     9    10   ar
    13    10    11   ar
    14    11    12   ar
    15    12    13   ar
    16    13    14   ar
    17     1     2    1
    18     2     3    1
    19     3     4    1
    20     4     5    1
    21     5     6    1
    22     6     7    1
    23    22    16   ar
    24    14     9   ar
    25     7     2    1
    26     5     8    1
@<TRIPOS>MOLECULE
*****
 24 26 0 0 0
SMALL
GASTEIGER

@<TRIPOS>ATOM
      1 C          -8.6940  -17.2429   22.2276 C.3     1  UNL1        0.0847
      2 N         -10.1756  -17.4066   22.3953 N.3     1  UNL1       -0.2676
      3 C         -11.1180  -16.7009   21.4658 C.3     1  UNL1        0.0896
      4 C         -12.5996  -16.8645   21.6334 C.3     1  UNL1        0.0862
      5 N         -13.1388  -17.7337   22.7305 N.3     1  UNL1       -0.2951
      6 C         -12.1964  -18.4394   23.6600 C.3     1  UNL1        0.0862
      7 C         -10.7148  -18.2758   23.4924 C.3     1  UNL1        0.0896
      8 H         -13.7060  -18.4541   22.2836 H       1  UNL1        0.1233
      9 C          -7.8799  -18.3518   21.6297 C.ar    1  UNL1       -0.0075
     10 C          -8.3050  -18.9809   20.3361 C.ar    1  UNL1       -0.0030
     11 C          -7.4908  -20.0898   19.7381 C.ar    1  UNL1       -0.0003
     12 C          -6.2516  -20.5696   20.4338 C.ar    1  UNL1       -0.0000
     13 C          -5.8264  -19.9405   21.7274 C.ar    1  UNL1       -0.0003
     14 C          -6.6405  -18.8317   22.3254 C.ar    1  UNL1       -0.0030
     15 C          -8.0265  -15.9704   22.6580 C.3     1  UNL1        0.0500
     16 C          -6.2314  -15.5865   24.4965 C.ar    1  UNL1        0.1620
     17 C          -5.8720  -15.3784   25.9378 C.ar    1  UNL1        0.1735
     18 F          -4.4362  -15.2026   26.3350 F       1  UNL1       -0.2010
     19 C          -6.9483  -15.3461   26.9820 C.ar    1  UNL1        0.0328
     20 C          -8.3841  -15.5218   26.5849 C.ar    1  UNL1        0.0022
     21 C          -8.7435  -15.7300   25.1436 C.ar    1  UNL1       -0.0011
     22 C          -7.6671  -15.7623   24.0994 C.ar    1  UNL1        0.0157
     23 C          -4.1476  -16.7302   23.4477 C.3     1  UNL1        0.2526
     24 O          -5.1550  -15.6189   23.4522 O.3     1  UNL1       -0.4695
@<TRIPOS>BOND
     1    23    24    1
     2    24    16    1
     3    16    17   ar
     4    17    18    1
     5    17    19   ar
     6    19    20   ar
     7    20    21   ar
     8    21    22   ar
     9    22    15    1
    10    15     1    1
    11     1     9    1
    12     9    10   ar
    13    10    11   ar
    14    11    12   ar
    15    12    13   ar
    16    13    14   ar
    17     1     2    1
    18     2     3    1
    19     3     4    1
    20     4     5    1
    21     5     6    1
    22     6     7    1
    23    22    16   ar
    24    14     9   ar
    25     7     2    1
    26     5     8    1
@<TRIPOS>MOLECULE
*****
 24 26 0 0 0
SMALL
GASTEIGER

@<TRIPOS>ATOM
      1 C          -8.4306  -16.7007   23.6175 C.3     1  UNL1        0.0847
      2 N          -9.8381  -17.2176   23.5753 N.3     1  UNL1       -0.2676
      3 C         -10.1821  -18.5123   24.2502 C.3     1  UNL1        0.0896
      4 C         -11.5896  -19.0292   24.2081 C.3     1  UNL1        0.0862
      5 N         -12.6530  -18.2515   23.4910 N.3     1  UNL1       -0.2951
      6 C         -12.3090  -16.9569   22.8161 C.3     1  UNL1        0.0862
      7 C         -10.9015  -16.4399   22.8582 C.3     1  UNL1        0.0896
      8 H         -13.3780  -18.0423   24.1772 H       1  UNL1        0.1233
      9 C          -7.8598  -16.1834   24.9046 C.ar    1  UNL1       -0.0075
     10 C          -6.4817  -15.5917   24.9297 C.ar    1  UNL1       -0.0030
     11 C          -5.9110  -15.0744   26.2169 C.ar    1  UNL1       -0.0003
     12 C          -6.7183  -15.1489   27.4788 C.ar    1  UNL1       -0.0000
     13 C          -8.0965  -15.7406   27.4537 C.ar    1  UNL1       -0.0003
     14 C          -8.6672  -16.2579   26.1666 C.ar    1  UNL1       -0.0030
     15 C          -7.5939  -16.7010   22.3725 C.3     1  UNL1        0.0500
     16 C          -5.6280  -18.3933   22.2250 C.ar    1  UNL1        0.1620
     17 C          -5.0574  -19.6795   21.7053 C.ar    1  UNL1        0.1735
     18 F          -3.6622  -20.0856   22.0776 F       1  UNL1       -0.2010
     19 C          -5.8819  -20.5595   20.8133 C.ar    1  UNL1        0.0328
     20 C          -7.2771  -20.1534   20.4411 C.ar    1  UNL1        0.0022
     21 C          -7.8477  -18.8673   20.9608 C.ar    1  UNL1       -0.0011
     22 C          -7.0232  -17.9872   21.8527 C.ar    1  UNL1        0.0157
     23 C          -3.3987  -17.1579   22.7292 C.3     1  UNL1        0.2526
     24 O          -4.8035  -17.5132   23.1170 O.3     1  UNL1       -0.4695
@<TRIPOS>BOND
     1    23    24    1
     2    24    16    1
     3    16    17   ar
     4    17    18    1
     5    17    19   ar
     6    19    20   ar
     7    20    21   ar
     8    21    22   ar
     9    22    15    1
    10    15     1    1
    11     1     9    1
    12     9    10   ar
    13    10    11   ar
    14    11    12   ar
    15    12    13   ar
    16    13    14   ar
    17     1     2    1
    18     2     3    1
    19     3     4    1
    20     4     5    1
    21     5     6    1
    22     6     7    1
    23    22    16   ar
    24    14     9   ar
    25     7     2    1
    26     5     8    1
@<TRIPOS>MOLECULE
*****
 24 26 0 0 0
SMALL
GASTEIGER

@<TRIPOS>ATOM
      1 C          -8.4517  -16.6915   23.6401 C.3     1  UNL1        0.0847
      2 N          -9.8616  -17.2025   23.6026 N.3     1  UNL1       -0.2676
      3 C         -10.9136  -16.4460   22.8470 C.3     1  UNL1        0.0896
      4 C         -12.3234  -16.9570   22.8094 C.3     1  UNL1        0.0862
      5 N         -12.6811  -18.2244   23.5275 N.3     1  UNL1       -0.2951
      6 C         -11.6290  -18.9808   24.2831 C.3     1  UNL1        0.0862
      7 C         -10.2193  -18.4699   24.3207 C.3     1  UNL1        0.0896
      8 H         -13.0574  -18.8634   22.8272 H       1  UNL1        0.1233
      9 C          -7.8736  -16.1795   24.9260 C.ar    1  UNL1       -0.0075
     10 C          -8.6727  -16.2613   26.1928 C.ar    1  UNL1       -0.0030
     11 C          -8.0944  -15.7493   27.4787 C.ar    1  UNL1       -0.0003
     12 C          -6.7171  -15.1555   27.4978 C.ar    1  UNL1       -0.0000
     13 C          -5.9180  -15.0737   26.2310 C.ar    1  UNL1       -0.0003
     14 C          -6.4962  -15.5857   24.9452 C.ar    1  UNL1       -0.0030
     15 C          -7.6202  -16.6925   22.3917 C.3     1  UNL1        0.0500
     16 C          -5.6513  -18.3809   22.2404 C.ar    1  UNL1        0.1620
     17 C          -5.0798  -19.6668   21.7210 C.ar    1  UNL1        0.1735
     18 F          -3.6825  -20.0693   22.0892 F       1  UNL1       -0.2010
     19 C          -5.9056  -20.5502   20.8335 C.ar    1  UNL1        0.0328
     20 C          -7.3029  -20.1477   20.4654 C.ar    1  UNL1        0.0022
     21 C          -7.8744  -18.8618   20.9848 C.ar    1  UNL1       -0.0011
     22 C          -7.0487  -17.9784   21.8723 C.ar    1  UNL1        0.0157
     23 C          -3.4226  -17.1407   22.7351 C.3     1  UNL1        0.2526
     24 O          -4.8256  -17.4975   23.1280 O.3     1  UNL1       -0.4695
@<TRIPOS>BOND
     1    23    24    1
     2    24    16    1
     3    16    17   ar
     4    17    18    1
     5    17    19   ar
     6    19    20   ar
     7    20    21   ar
     8    21    22   ar
     9    22    15    1
    10    15     1    1
    11     1     9    1
    12     9    10   ar
    13    10    11   ar
    14    11    12   ar
    15    12    13   ar
    16    13    14   ar
    17     1     2    1
    18     2     3    1
    19     3     4    1
    20     4     5    1
    21     5     6    1
    22     6     7    1
    23    22    16   ar
    24    14     9   ar
    25     7     2    1
    26     5     8    1
@<TRIPOS>MOLECULE
*****
 24 26 0 0 0
SMALL
GASTEIGER

@<TRIPOS>ATOM
      1 C          -9.3465  -17.9164   24.0750 C.3     1  UNL1        0.0847
      2 N         -10.7403  -17.5486   23.6602 N.3     1  UNL1       -0.2676
      3 C         -10.9742  -16.3353   22.8099 C.3     1  UNL1        0.0896
      4 C         -12.3679  -15.9674   22.3951 C.3     1  UNL1        0.0862
      5 N         -13.5278  -16.8130   22.8305 N.3     1  UNL1       -0.2951
      6 C         -13.2939  -18.0264   23.6808 C.3     1  UNL1        0.0862
      7 C         -11.9002  -18.3942   24.0956 C.3     1  UNL1        0.0896
      8 H         -13.9935  -17.1337   21.9816 H       1  UNL1        0.1233
      9 C          -8.6064  -17.0604   25.0596 C.ar    1  UNL1       -0.0075
     10 C          -7.5352  -16.1246   24.5834 C.ar    1  UNL1       -0.0030
     11 C          -6.7952  -15.2685   25.5681 C.ar    1  UNL1       -0.0003
     12 C          -7.1264  -15.3482   27.0289 C.ar    1  UNL1       -0.0000
     13 C          -8.1976  -16.2840   27.5050 C.ar    1  UNL1       -0.0003
     14 C          -8.9377  -17.1401   26.5204 C.ar    1  UNL1       -0.0030
     15 C          -8.6927  -19.1403   23.5051 C.3     1  UNL1        0.0500
     16 C          -7.1202  -19.0008   21.4416 C.ar    1  UNL1        0.1620
     17 C          -6.9059  -19.1163   19.9616 C.ar    1  UNL1        0.1735
     18 F          -5.5478  -18.8612   19.3782 F       1  UNL1       -0.2010
     19 C          -8.0498  -19.4870   19.0648 C.ar    1  UNL1        0.0328
     20 C          -9.4079  -19.7422   19.6482 C.ar    1  UNL1        0.0022
     21 C          -9.6223  -19.6266   21.1283 C.ar    1  UNL1       -0.0011
     22 C          -8.4784  -19.2559   22.0250 C.ar    1  UNL1        0.0157
     23 C          -4.7423  -19.4821   22.3711 C.3     1  UNL1        0.2526
     24 O          -5.9764  -18.6300   22.3384 O.3     1  UNL1       -0.4695
@<TRIPOS>BOND
     1    23    24    1
     2    24    16    1
     3    16    17   ar
     4    17    18    1
     5    17    19   ar
     6    19    20   ar
     7    20    21   ar
     8    21    22   ar
     9    22    15    1
    10    15     1    1
    11     1     9    1
    12     9    10   ar
    13    10    11   ar
    14    11    12   ar
    15    12    13   ar
    16    13    14   ar
    17     1     2    1
    18     2     3    1
    19     3     4    1
    20     4     5    1
    21     5     6    1
    22     6     7    1
    23    22    16   ar
    24    14     9   ar
    25     7     2    1
    26     5     8    1
@<TRIPOS>MOLECULE
*****
 24 26 0 0 0
SMALL
GASTEIGER

@<TRIPOS>ATOM
      1 C          -6.3755  -19.5491   21.0859 C.3     1  UNL1        0.0847
      2 N          -4.9083  -19.3069   20.8895 N.3     1  UNL1       -0.2676
      3 C          -3.9614  -19.4629   22.0424 C.3     1  UNL1        0.0896
      4 C          -2.4942  -19.2207   21.8460 C.3     1  UNL1        0.0862
      5 N          -1.9738  -18.8227   20.4967 N.3     1  UNL1       -0.2951
      6 C          -2.9206  -18.6668   19.3438 C.3     1  UNL1        0.0862
      7 C          -4.3879  -18.9089   19.5402 C.3     1  UNL1        0.0896
      8 H          -1.2916  -19.5302   20.2238 H       1  UNL1        0.1233
      9 C          -7.1807  -20.1978   19.9993 C.ar    1  UNL1       -0.0075
     10 C          -8.3231  -19.4580   19.3688 C.ar    1  UNL1       -0.0030
     11 C          -9.1283  -20.1068   18.2821 C.ar    1  UNL1       -0.0003
     12 C          -8.7911  -21.4954   17.8260 C.ar    1  UNL1       -0.0000
     13 C          -7.6487  -22.2352   18.4565 C.ar    1  UNL1       -0.0003
     14 C          -6.8435  -21.5865   19.5431 C.ar    1  UNL1       -0.0030
     15 C          -7.0376  -19.1424   22.3690 C.3     1  UNL1        0.0500
     16 C          -9.0298  -17.5002   22.0791 C.ar    1  UNL1        0.1620
     17 C         -10.5048  -17.2291   22.1089 C.ar    1  UNL1        0.1735
     18 F         -11.0220  -15.8579   21.7892 F       1  UNL1       -0.2010
     19 C         -11.4626  -18.3293   22.4585 C.ar    1  UNL1        0.0328
     20 C         -10.9454  -19.7005   22.7782 C.ar    1  UNL1        0.0022
     21 C          -9.4704  -19.9716   22.7484 C.ar    1  UNL1       -0.0011
     22 C          -8.5126  -18.8714   22.3989 C.ar    1  UNL1        0.0157
     23 C          -7.6394  -15.4204   22.7799 C.3     1  UNL1        0.2526
     24 O          -8.0720  -16.4000   21.7296 O.3     1  UNL1       -0.4695
@<TRIPOS>BOND
     1    23    24    1
     2    24    16    1
     3    16    17   ar
     4    17    18    1
     5    17    19   ar
     6    19    20   ar
     7    20    21   ar
     8    21    22   ar
     9    22    15    1
    10    15     1    1
    11     1     9    1
    12     9    10   ar
    13    10    11   ar
    14    11    12   ar
    15    12    13   ar
    16    13    14   ar
    17     1     2    1
    18     2     3    1
    19     3     4    1
    20     4     5    1
    21     5     6    1
    22     6     7    1
    23    22    16   ar
    24    14     9   ar
    25     7     2    1
    26     5     8    1
@<TRIPOS>MOLECULE
*****
 24 26 0 0 0
SMALL
GASTEIGER

@<TRIPOS>ATOM
      1 C          -7.5726  -16.9558   23.1516 C.3     1  UNL1        0.0847
      2 N          -8.4327  -16.2433   22.1502 N.3     1  UNL1       -0.2676
      3 C          -9.7393  -16.8431   21.7222 C.3     1  UNL1        0.0896
      4 C         -10.5994  -16.1307   20.7209 C.3     1  UNL1        0.0862
      5 N         -10.1530  -14.8184   20.1477 N.3     1  UNL1       -0.2951
      6 C          -8.8464  -14.2186   20.5757 C.3     1  UNL1        0.0862
      7 C          -7.9863  -14.9310   21.5770 C.3     1  UNL1        0.0896
      8 H         -10.8777  -14.1369   20.3729 H       1  UNL1        0.1233
      9 C          -7.3452  -16.3551   24.5071 C.ar    1  UNL1       -0.0075
     10 C          -8.4117  -16.4490   25.5576 C.ar    1  UNL1       -0.0030
     11 C          -8.1842  -15.8483   26.9132 C.ar    1  UNL1       -0.0003
     12 C          -6.8901  -15.1538   27.2182 C.ar    1  UNL1       -0.0000
     13 C          -5.8236  -15.0599   26.1676 C.ar    1  UNL1       -0.0003
     14 C          -6.0510  -15.6606   24.8121 C.ar    1  UNL1       -0.0030
     15 C          -6.9400  -18.2689   22.7973 C.3     1  UNL1        0.0500
     16 C          -5.1500  -18.9991   21.0616 C.ar    1  UNL1        0.1620
     17 C          -3.7199  -19.0454   20.6114 C.ar    1  UNL1        0.1735
     18 F          -3.3601  -19.7293   19.3258 F       1  UNL1       -0.2010
     19 C          -2.6497  -18.4079   21.4469 C.ar    1  UNL1        0.0328
     20 C          -3.0095  -17.7240   22.7325 C.ar    1  UNL1        0.0022
     21 C          -4.4396  -17.6776   23.1827 C.ar    1  UNL1       -0.0011
     22 C          -5.5098  -18.3152   22.3472 C.ar    1  UNL1        0.0157
     23 C          -6.3378  -21.1310   20.1704 C.3     1  UNL1        0.2526
     24 O          -6.2203  -19.6367   20.2261 O.3     1  UNL1       -0.4695
@<TRIPOS>BOND
     1    23    24    1
     2    24    16    1
     3    16    17   ar
     4    17    18    1
     5    17    19   ar
     6    19    20   ar
     7    20    21   ar
     8    21    22   ar
     9    22    15    1
    10    15     1    1
    11     1     9    1
    12     9    10   ar
    13    10    11   ar
    14    11    12   ar
    15    12    13   ar
    16    13    14   ar
    17     1     2    1
    18     2     3    1
    19     3     4    1
    20     4     5    1
    21     5     6    1
    22     6     7    1
    23    22    16   ar
    24    14     9   ar
    25     7     2    1
    26     5     8    1
