@<TRIPOS>MOLECULE
*****
 21 23 0 0 0
SMALL
GASTEIGER

@<TRIPOS>ATOM
      1 C          -7.8258  -19.0475   21.2613 C.3     1  UNL1        0.0624
      2 C          -9.2831  -19.3383   21.0573 C.3     1  UNL1        0.0420
      3 C         -10.3160  -18.3509   21.5137 C.ar    1  UNL1       -0.0215
      4 C         -11.7733  -18.6416   21.3097 C.ar    1  UNL1       -0.0044
      5 C         -12.8061  -17.6543   21.7662 C.ar    1  UNL1       -0.0003
      6 C         -12.3816  -16.3762   22.4266 C.ar    1  UNL1       -0.0002
      7 C         -10.9243  -16.0854   22.6306 C.ar    1  UNL1       -0.0011
      8 C          -9.8915  -17.0728   22.1742 C.ar    1  UNL1        0.0133
      9 C          -8.4341  -16.7820   22.3782 C.3     1  UNL1        0.1892
     10 C          -7.4013  -17.7694   21.9218 C.3     1  UNL1        0.0642
     11 C          -5.3469  -19.6392   20.7564 C.3     1  UNL1        0.0859
     12 N          -6.7929  -20.0349   20.8048 N.3     1  UNL1       -0.2970
     13 H          -6.8575  -20.8386   21.4295 H       1  UNL1        0.1233
     14 O          -8.0096  -15.5039   23.0387 O.3     1  UNL1       -0.4750
     15 C          -7.6095  -15.5037   24.4843 C.ar    1  UNL1        0.1348
     16 C          -8.6598  -15.5671   25.5533 C.ar    1  UNL1        0.0366
     17 C          -8.2596  -15.5668   26.9989 C.ar    1  UNL1        0.0031
     18 C          -6.8091  -15.5031   27.3756 C.ar    1  UNL1       -0.0001
     19 C          -5.7588  -15.4397   26.3066 C.ar    1  UNL1       -0.0013
     20 C          -6.1589  -15.4400   24.8610 C.ar    1  UNL1        0.0121
     21 C          -5.1085  -15.3765   23.7920 C.3     1  UNL1        0.0342
@<TRIPOS>BOND
     1    11    12    1
     2     1    12    1
     3     1     2    1
     4     2     3    1
     5     3     4   ar
     6     4     5   ar
     7     5     6   ar
     8     6     7   ar
     9     7     8   ar
    10     8     9    1
    11     9    14    1
    12    14    15    1
    13    15    16   ar
    14    16    17   ar
    15    17    18   ar
    16    18    19   ar
    17    19    20   ar
    18    20    21    1
    19     9    10    1
    20    10     1    1
    21     8     3   ar
    22    20    15   ar
    23    12    13    1
@<TRIPOS>MOLECULE
*****
 21 23 0 0 0
SMALL
GASTEIGER

@<TRIPOS>ATOM
      1 C          -6.3531  -15.9684   24.0478 C.3     1  UNL1        0.0624
      2 C          -5.0713  -16.7217   23.8489 C.3     1  UNL1        0.0420
      3 C          -5.0027  -17.8331   22.8438 C.ar    1  UNL1       -0.0215
      4 C          -3.7209  -18.5864   22.6450 C.ar    1  UNL1       -0.0044
      5 C          -3.6523  -19.6977   21.6399 C.ar    1  UNL1       -0.0003
      6 C          -4.8655  -20.0557   20.8336 C.ar    1  UNL1       -0.0002
      7 C          -6.1472  -19.3024   21.0324 C.ar    1  UNL1       -0.0011
      8 C          -6.2158  -18.1911   22.0375 C.ar    1  UNL1        0.0133
      9 C          -7.4976  -17.4377   22.2364 C.3     1  UNL1        0.1892
     10 C          -7.5662  -16.3264   23.2415 C.3     1  UNL1        0.0642
     11 C          -6.1513  -15.1380   26.5013 C.3     1  UNL1        0.0859
     12 N          -6.4217  -14.8570   25.0529 N.3     1  UNL1       -0.2970
     13 H          -5.7461  -14.1518   24.7586 H       1  UNL1        0.1233
     14 O          -8.7108  -17.7957   21.4301 O.3     1  UNL1       -0.4750
     15 C         -10.0799  -17.6232   22.0182 C.ar    1  UNL1        0.1348
     16 C         -10.8613  -16.3723   21.7451 C.ar    1  UNL1        0.0366
     17 C         -12.2304  -16.1998   22.3332 C.ar    1  UNL1        0.0031
     18 C         -12.8181  -17.2783   23.1944 C.ar    1  UNL1       -0.0001
     19 C         -12.0366  -18.5292   23.4675 C.ar    1  UNL1       -0.0013
     20 C         -10.6676  -18.7017   22.8794 C.ar    1  UNL1        0.0121
     21 C          -9.8861  -19.9526   23.1525 C.3     1  UNL1        0.0342
@<TRIPOS>BOND
     1    11    12    1
     2     1    12    1
     3     1     2    1
     4     2     3    1
     5     3     4   ar
     6     4     5   ar
     7     5     6   ar
     8     6     7   ar
     9     7     8   ar
    10     8     9    1
    11     9    14    1
    12    14    15    1
    13    15    16   ar
    14    16    17   ar
    15    17    18   ar
    16    18    19   ar
    17    19    20   ar
    18    20    21    1
    19     9    10    1
    20    10     1    1
    21     8     3   ar
    22    20    15   ar
    23    12    13    1
@<TRIPOS>MOLECULE
*****
 21 23 0 0 0
SMALL
GASTEIGER

@<TRIPOS>ATOM
      1 C         -10.3264  -19.3352   24.4078 C.3     1  UNL1        0.0624
      2 C         -10.9554  -19.4680   23.0525 C.3     1  UNL1        0.0420
      3 C         -10.9996  -18.2882   22.1272 C.ar    1  UNL1       -0.0215
      4 C         -11.6285  -18.4210   20.7720 C.ar    1  UNL1       -0.0044
      5 C         -11.6727  -17.2412   19.8468 C.ar    1  UNL1       -0.0003
      6 C         -11.0878  -15.9286   20.2768 C.ar    1  UNL1       -0.0002
      7 C         -10.4589  -15.7957   21.6320 C.ar    1  UNL1       -0.0011
      8 C         -10.4147  -16.9755   22.5572 C.ar    1  UNL1        0.0133
      9 C          -9.7857  -16.8427   23.9125 C.3     1  UNL1        0.1892
     10 C          -9.7416  -18.0225   24.8378 C.3     1  UNL1        0.0642
     11 C          -9.4875  -21.7312   24.9602 C.3     1  UNL1        0.0859
     12 N         -10.2823  -20.5150   25.3331 N.3     1  UNL1       -0.2970
     13 H          -9.9080  -20.1793   26.2205 H       1  UNL1        0.1233
     14 O          -9.2009  -15.5301   24.3425 O.3     1  UNL1       -0.4750
     15 C          -7.7687  -15.4551   24.7819 C.ar    1  UNL1        0.1348
     16 C          -6.6704  -15.4432   23.7603 C.ar    1  UNL1        0.0366
     17 C          -5.2381  -15.3682   24.1997 C.ar    1  UNL1        0.0031
     18 C          -4.9042  -15.3050   25.6607 C.ar    1  UNL1       -0.0001
     19 C          -6.0024  -15.3168   26.6823 C.ar    1  UNL1       -0.0013
     20 C          -7.4346  -15.3919   26.2429 C.ar    1  UNL1        0.0121
     21 C          -8.5329  -15.4037   27.2645 C.3     1  UNL1        0.0342
@<TRIPOS>BOND
     1    11    12    1
     2     1    12    1
     3     1     2    1
     4     2     3    1
     5     3     4   ar
     6     4     5   ar
     7     5     6   ar
     8     6     7   ar
     9     7     8   ar
    10     8     9    1
    11     9    14    1
    12    14    15    1
    13    15    16   ar
    14    16    17   ar
    15    17    18   ar
    16    18    19   ar
    17    19    20   ar
    18    20    21    1
    19     9    10    1
    20    10     1    1
    21     8     3   ar
    22    20    15   ar
    23    12    13    1
@<TRIPOS>MOLECULE
*****
 21 23 0 0 0
SMALL
GASTEIGER

@<TRIPOS>ATOM
      1 C         -10.5458  -16.4676   20.9440 C.3     1  UNL1        0.0624
      2 C         -10.7848  -17.9437   21.0620 C.3     1  UNL1        0.0420
      3 C         -10.5501  -18.6393   22.3702 C.ar    1  UNL1       -0.0215
      4 C         -10.7892  -20.1154   22.4882 C.ar    1  UNL1       -0.0044
      5 C         -10.5545  -20.8109   23.7963 C.ar    1  UNL1       -0.0003
      6 C         -10.0807  -20.0303   24.9863 C.ar    1  UNL1       -0.0002
      7 C          -9.8417  -18.5542   24.8683 C.ar    1  UNL1       -0.0011
      8 C         -10.0764  -17.8587   23.5602 C.ar    1  UNL1        0.0133
      9 C          -9.8373  -16.3826   23.4422 C.3     1  UNL1        0.1892
     10 C         -10.0720  -15.6871   22.1341 C.3     1  UNL1        0.0642
     11 C         -12.1759  -15.6198   19.1071 C.3     1  UNL1        0.0859
     12 N         -10.7805  -15.7720   19.6359 N.3     1  UNL1       -0.2970
     13 H         -10.3969  -14.8316   19.7295 H       1  UNL1        0.1233
     14 O          -9.3635  -15.6020   24.6322 O.3     1  UNL1       -0.4750
     15 C          -7.9005  -15.5460   24.9584 C.ar    1  UNL1        0.1348
     16 C          -6.8902  -15.4290   23.8559 C.ar    1  UNL1        0.0366
     17 C          -5.4271  -15.3731   24.1821 C.ar    1  UNL1        0.0031
     18 C          -4.9745  -15.4341   25.6109 C.ar    1  UNL1       -0.0001
     19 C          -5.9848  -15.5511   26.7134 C.ar    1  UNL1       -0.0013
     20 C          -7.4478  -15.6070   26.3872 C.ar    1  UNL1        0.0121
     21 C          -8.4581  -15.7240   27.4897 C.3     1  UNL1        0.0342
@<TRIPOS>BOND
     1    11    12    1
     2     1    12    1
     3     1     2    1
     4     2     3    1
     5     3     4   ar
     6     4     5   ar
     7     5     6   ar
     8     6     7   ar
     9     7     8   ar
    10     8     9    1
    11     9    14    1
    12    14    15    1
    13    15    16   ar
    14    16    17   ar
    15    17    18   ar
    16    18    19   ar
    17    19    20   ar
    18    20    21    1
    19     9    10    1
    20    10     1    1
    21     8     3   ar
    22    20    15   ar
    23    12    13    1
@<TRIPOS>MOLECULE
*****
 21 23 0 0 0
SMALL
GASTEIGER

@<TRIPOS>ATOM
      1 C         -10.5414  -17.5646   21.0891 C.3     1  UNL1        0.0624
      2 C          -9.7891  -18.8361   20.8295 C.3     1  UNL1        0.0420
      3 C          -8.3572  -18.9613   21.2587 C.ar    1  UNL1       -0.0215
      4 C          -7.6049  -20.2327   20.9991 C.ar    1  UNL1       -0.0044
      5 C          -6.1731  -20.3579   21.4283 C.ar    1  UNL1       -0.0003
      6 C          -5.4936  -19.2116   22.1170 C.ar    1  UNL1       -0.0002
      7 C          -6.2459  -17.9401   22.3766 C.ar    1  UNL1       -0.0011
      8 C          -7.6778  -17.8150   21.9474 C.ar    1  UNL1        0.0133
      9 C          -8.4302  -16.5435   22.2069 C.3     1  UNL1        0.1892
     10 C          -9.8620  -16.4183   21.7778 C.3     1  UNL1        0.0642
     11 C         -13.0763  -17.7075   21.6404 C.3     1  UNL1        0.0859
     12 N         -11.9733  -17.4394   20.6599 N.3     1  UNL1       -0.2970
     13 H         -12.0991  -16.4827   20.3295 H       1  UNL1        0.1233
     14 O          -7.7507  -15.3972   22.8956 O.3     1  UNL1       -0.4750
     15 C          -7.4970  -15.4537   24.3729 C.ar    1  UNL1        0.1348
     16 C          -8.6476  -15.5777   25.3273 C.ar    1  UNL1        0.0366
     17 C          -8.3939  -15.6342   26.8046 C.ar    1  UNL1        0.0031
     18 C          -6.9896  -15.5667   27.3276 C.ar    1  UNL1       -0.0001
     19 C          -5.8391  -15.4427   26.3732 C.ar    1  UNL1       -0.0013
     20 C          -6.0927  -15.3862   24.8959 C.ar    1  UNL1        0.0121
     21 C          -4.9421  -15.2622   23.9416 C.3     1  UNL1        0.0342
@<TRIPOS>BOND
     1    11    12    1
     2     1    12    1
     3     1     2    1
     4     2     3    1
     5     3     4   ar
     6     4     5   ar
     7     5     6   ar
     8     6     7   ar
     9     7     8   ar
    10     8     9    1
    11     9    14    1
    12    14    15    1
    13    15    16   ar
    14    16    17   ar
    15    17    18   ar
    16    18    19   ar
    17    19    20   ar
    18    20    21    1
    19     9    10    1
    20    10     1    1
    21     8     3   ar
    22    20    15   ar
    23    12    13    1
@<TRIPOS>MOLECULE
*****
 21 23 0 0 0
SMALL
GASTEIGER

@<TRIPOS>ATOM
      1 C          -8.0364  -15.9101   23.0927 C.3     1  UNL1        0.0624
      2 C          -9.2635  -15.8369   22.2331 C.3     1  UNL1        0.0420
      3 C          -9.6851  -17.0281   21.4247 C.ar    1  UNL1       -0.0215
      4 C         -10.9122  -16.9548   20.5652 C.ar    1  UNL1       -0.0044
      5 C         -11.3338  -18.1460   19.7569 C.ar    1  UNL1       -0.0003
      6 C         -10.5284  -19.4103   19.8082 C.ar    1  UNL1       -0.0002
      7 C          -9.3013  -19.4836   20.6677 C.ar    1  UNL1       -0.0011
      8 C          -8.8797  -18.2924   21.4760 C.ar    1  UNL1        0.0133
      9 C          -7.6526  -18.3657   22.3356 C.3     1  UNL1        0.1892
     10 C          -7.2310  -17.1745   23.1439 C.3     1  UNL1        0.0642
     11 C          -6.8256  -14.9098   25.1623 C.3     1  UNL1        0.0859
     12 N          -7.6147  -14.7190   23.9010 N.3     1  UNL1       -0.2970
     13 H          -7.0509  -14.1311   23.2871 H       1  UNL1        0.1233
     14 O          -6.8472  -19.6300   22.3869 O.3     1  UNL1       -0.4750
     15 C          -5.4422  -19.6461   21.8618 C.ar    1  UNL1        0.1348
     16 C          -4.3555  -18.9272   22.6049 C.ar    1  UNL1        0.0366
     17 C          -2.9505  -18.9433   22.0797 C.ar    1  UNL1        0.0031
     18 C          -2.6322  -19.6783   20.8114 C.ar    1  UNL1       -0.0001
     19 C          -3.7190  -20.3972   20.0683 C.ar    1  UNL1       -0.0013
     20 C          -5.1239  -20.3811   20.5935 C.ar    1  UNL1        0.0121
     21 C          -6.2106  -21.1000   19.8503 C.3     1  UNL1        0.0342
@<TRIPOS>BOND
     1    11    12    1
     2     1    12    1
     3     1     2    1
     4     2     3    1
     5     3     4   ar
     6     4     5   ar
     7     5     6   ar
     8     6     7   ar
     9     7     8   ar
    10     8     9    1
    11     9    14    1
    12    14    15    1
    13    15    16   ar
    14    16    17   ar
    15    17    18   ar
    16    18    19   ar
    17    19    20   ar
    18    20    21    1
    19     9    10    1
    20    10     1    1
    21     8     3   ar
    22    20    15   ar
    23    12    13    1
@<TRIPOS>MOLECULE
*****
 21 23 0 0 0
SMALL
GASTEIGER

@<TRIPOS>ATOM
      1 C          -6.5049  -15.8819   24.0918 C.3     1  UNL1        0.0624
      2 C          -7.8384  -16.1056   23.4426 C.3     1  UNL1        0.0420
      3 C          -8.0184  -17.2307   22.4670 C.ar    1  UNL1       -0.0215
      4 C          -9.3520  -17.4544   21.8178 C.ar    1  UNL1       -0.0044
      5 C          -9.5319  -18.5795   20.8423 C.ar    1  UNL1       -0.0003
      6 C          -8.3782  -19.4808   20.5158 C.ar    1  UNL1       -0.0002
      7 C          -7.0446  -19.2571   21.1650 C.ar    1  UNL1       -0.0011
      8 C          -6.8647  -18.1321   22.1406 C.ar    1  UNL1        0.0133
      9 C          -5.5311  -17.9083   22.7898 C.3     1  UNL1        0.1892
     10 C          -5.3512  -16.7832   23.7654 C.3     1  UNL1        0.0642
     11 C          -5.9676  -15.0512   26.4942 C.3     1  UNL1        0.0859
     12 N          -6.3249  -14.7568   25.0675 N.3     1  UNL1       -0.2970
     13 H          -5.5857  -14.1602   24.6959 H       1  UNL1        0.1233
     14 O          -4.3774  -18.8097   22.4634 O.3     1  UNL1       -0.4750
     15 C          -3.2981  -18.3397   21.5339 C.ar    1  UNL1        0.1348
     16 C          -2.4631  -17.1473   21.8960 C.ar    1  UNL1        0.0366
     17 C          -1.3837  -16.6773   20.9663 C.ar    1  UNL1        0.0031
     18 C          -1.1393  -17.3998   19.6747 C.ar    1  UNL1       -0.0001
     19 C          -1.9742  -18.5922   19.3126 C.ar    1  UNL1       -0.0013
     20 C          -3.0536  -19.0621   20.2422 C.ar    1  UNL1        0.0121
     21 C          -3.8885  -20.2545   19.8801 C.3     1  UNL1        0.0342
@<TRIPOS>BOND
     1    11    12    1
     2     1    12    1
     3     1     2    1
     4     2     3    1
     5     3     4   ar
     6     4     5   ar
     7     5     6   ar
     8     6     7   ar
     9     7     8   ar
    10     8     9    1
    11     9    14    1
    12    14    15    1
    13    15    16   ar
    14    16    17   ar
    15    17    18   ar
    16    18    19   ar
    17    19    20   ar
    18    20    21    1
    19     9    10    1
    20    10     1    1
    21     8     3   ar
    22    20    15   ar
    23    12    13    1
@<TRIPOS>MOLECULE
*****
 21 23 0 0 0
SMALL
GASTEIGER

@<TRIPOS>ATOM
      1 C          -6.1572  -19.1563   21.5873 C.3     1  UNL1        0.0624
      2 C          -7.2080  -19.7376   20.6885 C.3     1  UNL1        0.0420
      3 C          -8.5592  -19.0922   20.5990 C.ar    1  UNL1       -0.0215
      4 C          -9.6099  -19.6735   19.7002 C.ar    1  UNL1       -0.0044
      5 C         -10.9610  -19.0281   19.6108 C.ar    1  UNL1       -0.0003
      6 C         -11.2613  -17.8014   20.4202 C.ar    1  UNL1       -0.0002
      7 C         -10.2106  -17.2202   21.3190 C.ar    1  UNL1       -0.0011
      8 C          -8.8595  -17.8655   21.4084 C.ar    1  UNL1        0.0133
      9 C          -7.8086  -17.2843   22.3073 C.3     1  UNL1        0.1892
     10 C          -6.4576  -17.9296   22.3967 C.3     1  UNL1        0.0642
     11 C          -4.0774  -20.1928   20.4254 C.3     1  UNL1        0.0859
     12 N          -4.8061  -19.8016   21.6767 N.3     1  UNL1       -0.2970
     13 H          -4.2016  -19.1509   22.1782 H       1  UNL1        0.1233
     14 O          -8.1089  -16.0576   23.1167 O.3     1  UNL1       -0.4750
     15 C          -7.7651  -16.0194   24.5762 C.ar    1  UNL1        0.1348
     16 C          -6.5610  -15.2565   25.0433 C.ar    1  UNL1        0.0366
     17 C          -6.2171  -15.2183   26.5029 C.ar    1  UNL1        0.0031
     18 C          -7.0773  -15.9429   27.4953 C.ar    1  UNL1       -0.0001
     19 C          -8.2814  -16.7058   27.0282 C.ar    1  UNL1       -0.0013
     20 C          -8.6253  -16.7440   25.5687 C.ar    1  UNL1        0.0121
     21 C          -9.8294  -17.5069   25.1016 C.3     1  UNL1        0.0342
@<TRIPOS>BOND
     1    11    12    1
     2     1    12    1
     3     1     2    1
     4     2     3    1
     5     3     4   ar
     6     4     5   ar
     7     5     6   ar
     8     6     7   ar
     9     7     8   ar
    10     8     9    1
    11     9    14    1
    12    14    15    1
    13    15    16   ar
    14    16    17   ar
    15    17    18   ar
    16    18    19   ar
    17    19    20   ar
    18    20    21    1
    19     9    10    1
    20    10     1    1
    21     8     3   ar
    22    20    15   ar
    23    12    13    1
@<TRIPOS>MOLECULE
*****
 21 23 0 0 0
SMALL
GASTEIGER

@<TRIPOS>ATOM
      1 C          -8.0013  -15.8906   23.2398 C.3     1  UNL1        0.0624
      2 C          -9.2289  -16.0104   22.3861 C.3     1  UNL1        0.0420
      3 C          -9.4139  -17.2082   21.5023 C.ar    1  UNL1       -0.0215
      4 C         -10.6415  -17.3279   20.6486 C.ar    1  UNL1       -0.0044
      5 C         -10.8264  -18.5256   19.7648 C.ar    1  UNL1       -0.0003
      6 C          -9.7838  -19.6036   19.7346 C.ar    1  UNL1       -0.0002
      7 C          -8.5562  -19.4839   20.5882 C.ar    1  UNL1       -0.0011
      8 C          -8.3713  -18.2861   21.4721 C.ar    1  UNL1        0.0133
      9 C          -7.1437  -18.1663   22.3257 C.3     1  UNL1        0.1892
     10 C          -6.9587  -16.9686   23.2096 C.3     1  UNL1        0.0642
     11 C          -7.0277  -14.8127   25.3939 C.3     1  UNL1        0.0859
     12 N          -7.8163  -14.6928   24.1236 N.3     1  UNL1       -0.2970
     13 H          -7.3578  -13.9780   23.5587 H       1  UNL1        0.1233
     14 O          -6.1011  -19.2443   22.2955 O.3     1  UNL1       -0.4750
     15 C          -4.8296  -19.0367   21.5273 C.ar    1  UNL1        0.1348
     16 C          -4.7562  -19.4231   20.0798 C.ar    1  UNL1        0.0366
     17 C          -3.4847  -19.2154   19.3116 C.ar    1  UNL1        0.0031
     18 C          -2.2865  -18.6213   19.9909 C.ar    1  UNL1       -0.0001
     19 C          -2.3599  -18.2348   21.4384 C.ar    1  UNL1       -0.0013
     20 C          -3.6314  -18.4425   22.2066 C.ar    1  UNL1        0.0121
     21 C          -3.7047  -18.0560   23.6541 C.3     1  UNL1        0.0342
@<TRIPOS>BOND
     1    11    12    1
     2     1    12    1
     3     1     2    1
     4     2     3    1
     5     3     4   ar
     6     4     5   ar
     7     5     6   ar
     8     6     7   ar
     9     7     8   ar
    10     8     9    1
    11     9    14    1
    12    14    15    1
    13    15    16   ar
    14    16    17   ar
    15    17    18   ar
    16    18    19   ar
    17    19    20   ar
    18    20    21    1
    19     9    10    1
    20    10     1    1
    21     8     3   ar
    22    20    15   ar
    23    12    13    1
