@<TRIPOS>MOLECULE
*****
 29 34 0 0 0
SMALL
GASTEIGER

@<TRIPOS>ATOM
      1 C         -10.3564  -18.5233   22.5401 C.3     1  UNL1        0.0261
      2 C         -11.8354  -18.3077   22.4134 C.3     1  UNL1        0.0042
      3 C         -11.2319  -18.5969   23.7558 C.3     1  UNL1        0.0003
      4 C         -12.1075  -18.6704   24.9715 C.3     1  UNL1        0.0000
      5 C         -13.5865  -18.4548   24.8448 C.3     1  UNL1        0.0000
      6 C         -14.1899  -18.1656   23.5024 C.3     1  UNL1        0.0000
      7 C         -13.3144  -18.0921   22.2867 C.3     1  UNL1        0.0003
      8 C         -10.9552  -18.5211   23.0343 C.3     1  UNL1        0.0003
      9 C          -9.7529  -18.8125   23.8825 C.3     1  UNL1        0.0042
     10 C         -10.6285  -18.8861   25.0982 C.3     1  UNL1        0.0003
     11 C          -6.0260  -18.9164   21.3814 C.ar    1  UNL1       -0.0000
     12 C          -6.4202  -18.0176   22.5157 C.ar    1  UNL1       -0.0003
     13 C          -7.8637  -17.8865   22.9020 C.ar    1  UNL1       -0.0043
     14 C          -8.9129  -18.6543   22.1539 C.ar    1  UNL1       -0.0224
     15 C          -8.5186  -19.5532   21.0196 C.ar    1  UNL1       -0.0043
     16 C          -7.0752  -19.6842   20.6334 C.ar    1  UNL1       -0.0003
     17 C          -1.6954  -19.3094   20.2230 C.ar    1  UNL1        0.0000
     18 C          -2.1167  -19.5491   21.6425 C.ar    1  UNL1        0.0000
     19 C          -3.5603  -19.4180   22.0286 C.ar    1  UNL1       -0.0000
     20 C          -4.5824  -19.0474   20.9952 C.ar    1  UNL1       -0.0000
     21 C          -4.1611  -18.8078   19.5757 C.ar    1  UNL1       -0.0000
     22 C          -2.7175  -18.9388   19.1896 C.ar    1  UNL1        0.0000
     23 C         -10.4586  -18.2796   21.0635 C.3     1  UNL1        0.0711
     24 C         -10.3629  -16.8828   20.5255 C.ar    1  UNL1        0.1577
     25 N         -11.0478  -16.3625   19.2965 N.ar    1  UNL1       -0.1129
     26 N         -10.6738  -14.9191   19.1333 N.ar    1  UNL1       -0.0232
     27 N          -9.7577  -14.5472   20.2613 N.ar    1  UNL1       -0.0466
     28 N          -9.5655  -15.7608   21.1217 N.ar    1  UNL1       -0.2422
     29 H          -9.0131  -15.8120   21.9350 H       1  UNL1        0.1920
@<TRIPOS>BOND
     1    17    18   ar
     2    18    19   ar
     3    19    20   ar
     4    20    11    1
     5    11    12   ar
     6    12    13   ar
     7    13    14   ar
     8    14     1    1
     9     1    23    1
    10    23    24    1
    11    24    25   ar
    12    25    26   ar
    13    26    27   ar
    14    27    28   ar
    15     1     2    1
    16     2     3    1
    17     3     4    1
    18     4     5    1
    19     5     6    1
    20     6     7    1
    21     6     8    1
    22     8     9    1
    23     9    10    1
    24    14    15   ar
    25    15    16   ar
    26    20    21   ar
    27    21    22   ar
    28    22    17   ar
    29    16    11   ar
    30     9     1    1
    31    28    24   ar
    32     7     2    1
    33    10     4    1
    34    28    29    1
@<TRIPOS>MOLECULE
*****
 29 34 0 0 0
SMALL
GASTEIGER

@<TRIPOS>ATOM
      1 C         -10.5505  -18.6110   23.2832 C.3     1  UNL1        0.0261
      2 C         -11.7229  -18.5819   24.2184 C.3     1  UNL1        0.0042
      3 C         -11.9284  -18.3506   22.7507 C.3     1  UNL1        0.0003
      4 C         -13.3062  -18.0902   22.2182 C.3     1  UNL1        0.0000
      5 C         -14.4787  -18.0612   23.1534 C.3     1  UNL1        0.0000
      6 C         -14.2732  -18.2924   24.6211 C.3     1  UNL1        0.0000
      7 C         -12.8953  -18.5528   25.1536 C.3     1  UNL1        0.0003
      8 C         -11.3142  -18.4964   23.2028 C.3     1  UNL1        0.0003
      9 C         -10.7560  -18.3797   21.8155 C.3     1  UNL1        0.0042
     10 C         -12.1338  -18.1193   21.2830 C.3     1  UNL1        0.0003
     11 C          -6.3073  -18.9844   21.8320 C.ar    1  UNL1       -0.0000
     12 C          -7.0132  -17.6633   21.7536 C.ar    1  UNL1       -0.0003
     13 C          -8.4276  -17.5387   22.2373 C.ar    1  UNL1       -0.0043
     14 C          -9.1361  -18.7354   22.7995 C.ar    1  UNL1       -0.0224
     15 C          -8.4302  -20.0566   22.8779 C.ar    1  UNL1       -0.0043
     16 C          -7.0158  -20.1811   22.3942 C.ar    1  UNL1       -0.0003
     17 C          -2.0641  -19.3578   20.3810 C.ar    1  UNL1        0.0000
     18 C          -2.3525  -19.3148   21.8523 C.ar    1  UNL1        0.0000
     19 C          -3.7669  -19.1903   22.3360 C.ar    1  UNL1       -0.0000
     20 C          -4.8928  -19.1089   21.3483 C.ar    1  UNL1       -0.0000
     21 C          -4.6045  -19.1519   19.8769 C.ar    1  UNL1       -0.0000
     22 C          -3.1900  -19.2764   19.3932 C.ar    1  UNL1        0.0000
     23 C          -9.8538  -18.8854   24.5829 C.3     1  UNL1        0.0711
     24 C          -9.3201  -17.7483   25.4026 C.ar    1  UNL1        0.1577
     25 N          -8.9221  -17.8136   26.8475 N.ar    1  UNL1       -0.1129
     26 N          -8.4466  -16.4519   27.2593 N.ar    1  UNL1       -0.0232
     27 N          -8.5507  -15.5450   26.0691 N.ar    1  UNL1       -0.0466
     28 N          -9.0905  -16.3462   24.9216 N.ar    1  UNL1       -0.2422
     29 H          -9.2637  -16.0106   24.0124 H       1  UNL1        0.1920
@<TRIPOS>BOND
     1    17    18   ar
     2    18    19   ar
     3    19    20   ar
     4    20    11    1
     5    11    12   ar
     6    12    13   ar
     7    13    14   ar
     8    14     1    1
     9     1    23    1
    10    23    24    1
    11    24    25   ar
    12    25    26   ar
    13    26    27   ar
    14    27    28   ar
    15     1     2    1
    16     2     3    1
    17     3     4    1
    18     4     5    1
    19     5     6    1
    20     6     7    1
    21     6     8    1
    22     8     9    1
    23     9    10    1
    24    14    15   ar
    25    15    16   ar
    26    20    21   ar
    27    21    22   ar
    28    22    17   ar
    29    16    11   ar
    30     9     1    1
    31    28    24   ar
    32     7     2    1
    33    10     4    1
    34    28    29    1
@<TRIPOS>MOLECULE
*****
 29 34 0 0 0
SMALL
GASTEIGER

@<TRIPOS>ATOM
      1 C         -10.2302  -18.2885   23.0839 C.3     1  UNL1        0.0261
      2 C         -11.6765  -17.9609   22.8578 C.3     1  UNL1        0.0042
      3 C         -11.2433  -18.5929   24.1473 C.3     1  UNL1        0.0003
      4 C         -12.2564  -18.8973   25.2108 C.3     1  UNL1        0.0000
      5 C         -13.7026  -18.5696   24.9847 C.3     1  UNL1        0.0000
      6 C         -14.1358  -17.9376   23.6952 C.3     1  UNL1        0.0000
      7 C         -13.1227  -17.6332   22.6317 C.3     1  UNL1        0.0003
      8 C         -10.8821  -18.3665   23.4983 C.3     1  UNL1        0.0003
      9 C          -9.7971  -18.9206   24.3734 C.3     1  UNL1        0.0042
     10 C         -10.8102  -19.2249   25.4368 C.3     1  UNL1        0.0003
     11 C          -5.8097  -18.6572   22.3270 C.ar    1  UNL1       -0.0000
     12 C          -6.6813  -19.8773   22.2892 C.ar    1  UNL1       -0.0003
     13 C          -8.1549  -19.7545   22.5415 C.ar    1  UNL1       -0.0043
     14 C          -8.7567  -18.4115   22.8316 C.ar    1  UNL1       -0.0224
     15 C          -7.8850  -17.1913   22.8694 C.ar    1  UNL1       -0.0043
     16 C          -6.4116  -17.3142   22.6171 C.ar    1  UNL1       -0.0003
     17 C          -1.3892  -19.0258   21.5703 C.ar    1  UNL1        0.0000
     18 C          -1.8959  -18.0584   22.5985 C.ar    1  UNL1        0.0000
     19 C          -3.3694  -17.9355   22.8507 C.ar    1  UNL1       -0.0000
     20 C          -4.3361  -18.7801   22.0747 C.ar    1  UNL1       -0.0000
     21 C          -3.8294  -19.7475   21.0465 C.ar    1  UNL1       -0.0000
     22 C          -2.3558  -19.8704   20.7943 C.ar    1  UNL1        0.0000
     23 C         -10.1517  -17.6992   21.7067 C.3     1  UNL1        0.0711
     24 C          -9.8526  -18.5799   20.5299 C.ar    1  UNL1        0.1577
     25 N         -10.7243  -19.6853   20.0118 N.ar    1  UNL1       -0.1129
     26 N         -10.0397  -20.2984   18.8263 N.ar    1  UNL1       -0.0232
     27 N          -8.7450  -19.5721   18.6117 N.ar    1  UNL1       -0.0466
     28 N          -8.6293  -18.5100   19.6645 N.ar    1  UNL1       -0.2422
     29 H          -7.8818  -17.8780   19.7692 H       1  UNL1        0.1920
@<TRIPOS>BOND
     1    17    18   ar
     2    18    19   ar
     3    19    20   ar
     4    20    11    1
     5    11    12   ar
     6    12    13   ar
     7    13    14   ar
     8    14     1    1
     9     1    23    1
    10    23    24    1
    11    24    25   ar
    12    25    26   ar
    13    26    27   ar
    14    27    28   ar
    15     1     2    1
    16     2     3    1
    17     3     4    1
    18     4     5    1
    19     5     6    1
    20     6     7    1
    21     6     8    1
    22     8     9    1
    23     9    10    1
    24    14    15   ar
    25    15    16   ar
    26    20    21   ar
    27    21    22   ar
    28    22    17   ar
    29    16    11   ar
    30     9     1    1
    31    28    24   ar
    32     7     2    1
    33    10     4    1
    34    28    29    1
@<TRIPOS>MOLECULE
*****
 29 34 0 0 0
SMALL
GASTEIGER

@<TRIPOS>ATOM
      1 C           3.2342   -0.6251   20.4572 C.3     1  UNL1        0.0261
      2 C           2.3829   -0.0626   19.3577 C.3     1  UNL1        0.0042
      3 C           2.4643    0.6429   20.6789 C.3     1  UNL1        0.0003
      4 C           1.6944    1.9110   20.9007 C.3     1  UNL1        0.0000
      5 C           0.8431    2.4735   19.8012 C.3     1  UNL1        0.0000
      6 C           0.7617    1.7681   18.4800 C.3     1  UNL1        0.0000
      7 C           1.5316    0.5000   18.2583 C.3     1  UNL1        0.0003
      8 C           2.7771   -0.0022   20.3808 C.3     1  UNL1        0.0003
      9 C           3.3156    0.0803   21.7784 C.3     1  UNL1        0.0042
     10 C           2.5456    1.3484   22.0001 C.3     1  UNL1        0.0003
     11 C           6.0421   -3.3802   22.6424 C.ar    1  UNL1       -0.0000
     12 C           4.7126   -3.8869   22.1676 C.ar    1  UNL1       -0.0003
     13 C           3.7766   -2.9686   21.4392 C.ar    1  UNL1       -0.0043
     14 C           4.1701   -1.5435   21.1856 C.ar    1  UNL1       -0.0224
     15 C           5.4997   -1.0368   21.6605 C.ar    1  UNL1       -0.0043
     16 C           6.4357   -1.9551   22.3888 C.ar    1  UNL1       -0.0003
     17 C           8.8500   -6.1354   24.8275 C.ar    1  UNL1        0.0000
     18 C           9.0179   -5.9076   23.3545 C.ar    1  UNL1        0.0000
     19 C           8.0819   -4.9892   22.6261 C.ar    1  UNL1       -0.0000
     20 C           6.9781   -4.2986   23.3709 C.ar    1  UNL1       -0.0000
     21 C           6.8102   -4.5263   24.8439 C.ar    1  UNL1       -0.0000
     22 C           7.7462   -5.4448   25.5723 C.ar    1  UNL1        0.0000
     23 C           3.4779   -1.6496   19.3889 C.3     1  UNL1        0.0711
     24 C           4.7375   -1.6005   18.5759 C.ar    1  UNL1        0.1577
     25 N           5.3279   -0.3780   17.9379 N.ar    1  UNL1       -0.1129
     26 N           6.5831   -0.7871   17.2258 N.ar    1  UNL1       -0.0232
     27 N           6.7685   -2.2624   17.4237 N.ar    1  UNL1       -0.0466
     28 N           5.6278   -2.7651   18.2581 N.ar    1  UNL1       -0.2422
     29 H           5.4880   -3.6960   18.5465 H       1  UNL1        0.1920
@<TRIPOS>BOND
     1    17    18   ar
     2    18    19   ar
     3    19    20   ar
     4    20    11    1
     5    11    12   ar
     6    12    13   ar
     7    13    14   ar
     8    14     1    1
     9     1    23    1
    10    23    24    1
    11    24    25   ar
    12    25    26   ar
    13    26    27   ar
    14    27    28   ar
    15     1     2    1
    16     2     3    1
    17     3     4    1
    18     4     5    1
    19     5     6    1
    20     6     7    1
    21     6     8    1
    22     8     9    1
    23     9    10    1
    24    14    15   ar
    25    15    16   ar
    26    20    21   ar
    27    21    22   ar
    28    22    17   ar
    29    16    11   ar
    30     9     1    1
    31    28    24   ar
    32     7     2    1
    33    10     4    1
    34    28    29    1
@<TRIPOS>MOLECULE
*****
 29 34 0 0 0
SMALL
GASTEIGER

@<TRIPOS>ATOM
      1 C           3.2380   -0.6243   20.4506 C.3     1  UNL1        0.0261
      2 C           2.3845   -0.0601   19.3537 C.3     1  UNL1        0.0042
      3 C           2.4676    0.6428   20.6762 C.3     1  UNL1        0.0003
      4 C           1.6972    1.9098   20.9018 C.3     1  UNL1        0.0000
      5 C           0.8436    2.4740   19.8050 C.3     1  UNL1        0.0000
      6 C           0.7604    1.7712   18.4825 C.3     1  UNL1        0.0000
      7 C           1.5309    0.5041   18.2569 C.3     1  UNL1        0.0003
      8 C           2.7804   -0.0015   20.3763 C.3     1  UNL1        0.0003
      9 C           3.3212    0.0786   21.7731 C.3     1  UNL1        0.0042
     10 C           2.5508    1.3457   21.9987 C.3     1  UNL1        0.0003
     11 C           6.0514   -3.3821   22.6254 C.ar    1  UNL1       -0.0000
     12 C           6.4489   -1.9597   22.3631 C.ar    1  UNL1       -0.0003
     13 C           5.5111   -1.0404   21.6381 C.ar    1  UNL1       -0.0043
     14 C           4.1759   -1.5435   21.1755 C.ar    1  UNL1       -0.0224
     15 C           3.7784   -2.9659   21.4378 C.ar    1  UNL1       -0.0043
     16 C           4.7161   -3.8852   22.1627 C.ar    1  UNL1       -0.0003
     17 C           8.8647   -6.1398   24.8002 C.ar    1  UNL1        0.0000
     18 C           7.7539   -5.4613   25.5457 C.ar    1  UNL1        0.0000
     19 C           6.8162   -4.5420   24.8207 C.ar    1  UNL1       -0.0000
     20 C           6.9892   -4.3014   23.3503 C.ar    1  UNL1       -0.0000
     21 C           8.1000   -4.9799   22.6048 C.ar    1  UNL1       -0.0000
     22 C           9.0377   -5.8992   23.3299 C.ar    1  UNL1        0.0000
     23 C           3.4806   -1.6464   19.3799 C.3     1  UNL1        0.0711
     24 C           4.7414   -1.5983   18.5687 C.ar    1  UNL1        0.1577
     25 N           5.6316   -2.7636   18.2529 N.ar    1  UNL1       -0.1129
     26 N           6.7737   -2.2620   17.4199 N.ar    1  UNL1       -0.0232
     27 N           6.5895   -0.7867   17.2209 N.ar    1  UNL1       -0.0466
     28 N           5.3335   -0.3765   17.9309 N.ar    1  UNL1       -0.2422
     29 H           4.9628    0.5347   17.9712 H       1  UNL1        0.1920
@<TRIPOS>BOND
     1    17    18   ar
     2    18    19   ar
     3    19    20   ar
     4    20    11    1
     5    11    12   ar
     6    12    13   ar
     7    13    14   ar
     8    14     1    1
     9     1    23    1
    10    23    24    1
    11    24    25   ar
    12    25    26   ar
    13    26    27   ar
    14    27    28   ar
    15     1     2    1
    16     2     3    1
    17     3     4    1
    18     4     5    1
    19     5     6    1
    20     6     7    1
    21     6     8    1
    22     8     9    1
    23     9    10    1
    24    14    15   ar
    25    15    16   ar
    26    20    21   ar
    27    21    22   ar
    28    22    17   ar
    29    16    11   ar
    30     9     1    1
    31    28    24   ar
    32     7     2    1
    33    10     4    1
    34    28    29    1
