@<TRIPOS>MOLECULE
*****
 29 31 0 0 0
SMALL
GASTEIGER

@<TRIPOS>ATOM
      1 C          -6.5164  -18.4728   22.3470 C.ar    1  UNL1        0.0534
      2 C          -6.3563  -19.0013   20.9523 C.ar    1  UNL1        0.0045
      3 C          -5.0258  -18.9135   20.2651 C.ar    1  UNL1        0.0001
      4 C          -3.8555  -18.2973   20.9727 C.ar    1  UNL1        0.0001
      5 C          -4.0156  -17.7688   22.3673 C.ar    1  UNL1        0.0001
      6 C          -5.3461  -17.8566   23.0545 C.ar    1  UNL1        0.0045
      7 C          -2.5250  -18.2095   20.2856 C.ar    1  UNL1        0.0043
      8 C          -1.2599  -18.2991   21.0865 C.ar    1  UNL1        0.0208
      9 C           0.0706  -18.2113   20.3994 C.ar    1  UNL1        0.1003
     10 N           0.1359  -18.0339   18.9113 N.ar    1  UNL1       -0.2296
     11 C          -1.1292  -17.9443   18.1104 C.ar    1  UNL1        0.1254
     12 N          -1.0639  -17.7670   16.6223 N.pl3   1  UNL1       -0.3426
     13 C          -2.4597  -18.0321   18.7975 C.ar    1  UNL1        0.0339
     14 H          -0.1907  -17.7093   16.1713 H       1  UNL1        0.1437
     15 H          -1.8942  -17.7082   16.0967 H       1  UNL1        0.1437
     16 N          -8.6153  -19.8487   23.0190 N.am    1  UNL1       -0.2987
     17 C          -7.8469  -18.5606   23.0341 C.2     1  UNL1        0.2460
     18 O          -8.4089  -17.3602   23.7365 O.2     1  UNL1       -0.2701
     19 H          -8.2464  -20.6366   22.5580 H       1  UNL1        0.1500
     20 C          -9.9457  -19.9365   23.7061 C.3     1  UNL1        0.0945
     21 C         -10.1305  -20.8689   24.8664 C.3     1  UNL1        0.0262
     22 C         -12.2529  -17.7243   21.3537 C.ar    1  UNL1        0.1385
     23 C         -13.3827  -17.4025   22.2863 C.ar    1  UNL1        0.0369
     24 C         -13.3669  -17.9252   23.6922 C.ar    1  UNL1        0.0028
     25 C         -12.2213  -18.7699   24.1655 C.ar    1  UNL1       -0.0025
     26 C         -11.0915  -19.0918   23.2329 C.ar    1  UNL1       -0.0015
     27 C         -11.1073  -18.5690   21.8270 C.ar    1  UNL1        0.0342
     28 C         -11.5524  -15.9267   19.6137 C.3     1  UNL1        0.2525
     29 O         -12.2687  -17.2016   19.9479 O.3     1  UNL1       -0.4714
@<TRIPOS>BOND
     1    28    29    1
     2    29    22    1
     3    22    23   ar
     4    23    24   ar
     5    24    25   ar
     6    25    26   ar
     7    26    20    1
     8    20    21    1
     9    20    16    1
    10    16    17   am
    11    17    18    2
    12    17     1    1
    13     1     2   ar
    14     2     3   ar
    15     3     4   ar
    16     4     7    1
    17     7     8   ar
    18     8     9   ar
    19     9    10   ar
    20    10    11   ar
    21    11    12    1
    22    11    13   ar
    23     4     5   ar
    24     5     6   ar
    25    26    27   ar
    26    27    22   ar
    27     6     1   ar
    28    13     7   ar
    29    16    19    1
    30    12    14    1
    31    12    15    1
@<TRIPOS>MOLECULE
*****
 29 31 0 0 0
SMALL
GASTEIGER

@<TRIPOS>ATOM
      1 C           0.4603    1.4723   21.2293 C.ar    1  UNL1        0.0534
      2 C           0.4149    0.5202   20.0710 C.ar    1  UNL1        0.0045
      3 C           1.3724   -0.6329   20.0101 C.ar    1  UNL1        0.0001
      4 C           2.3752   -0.8338   21.1075 C.ar    1  UNL1        0.0001
      5 C           2.4205    0.1183   22.2656 C.ar    1  UNL1        0.0001
      6 C           1.4630    1.2714   22.3265 C.ar    1  UNL1        0.0045
      7 C           3.3327   -1.9869   21.0466 C.ar    1  UNL1        0.0043
      8 C           4.1440   -2.3526   22.2541 C.ar    1  UNL1        0.0208
      9 C           5.1014   -3.5057   22.1932 C.ar    1  UNL1        0.1003
     10 N           5.2476   -4.2930   20.9248 N.ar    1  UNL1       -0.2296
     11 C           4.4363   -3.9272   19.7174 C.ar    1  UNL1        0.1254
     12 N           4.5824   -4.7146   18.4489 N.pl3   1  UNL1       -0.3426
     13 C           3.4788   -2.7742   19.7783 C.ar    1  UNL1        0.0339
     14 H           5.2108   -5.4714   18.4090 H       1  UNL1        0.1437
     15 H           4.0499   -4.4745   17.6564 H       1  UNL1        0.1437
     16 N          -1.8895    2.4733   20.7531 N.am    1  UNL1       -0.2987
     17 C          -0.4972    2.6254   21.2901 C.2     1  UNL1        0.2460
     18 O          -0.0623    3.9306   21.8881 O.2     1  UNL1       -0.2701
     19 H          -2.1749    1.6167   20.3607 H       1  UNL1        0.1500
     20 C          -2.8469    3.6264   20.8140 C.3     1  UNL1        0.0945
     21 C          -2.8375    4.6669   19.7337 C.3     1  UNL1        0.0262
     22 C          -4.2819    3.7975   24.5102 C.ar    1  UNL1        0.1385
     23 C          -5.7475    3.9639   24.2378 C.ar    1  UNL1        0.0369
     24 C          -6.2463    4.0177   22.8242 C.ar    1  UNL1        0.0028
     25 C          -5.2795    3.9052   21.6830 C.ar    1  UNL1       -0.0025
     26 C          -3.8138    3.7389   21.9553 C.ar    1  UNL1       -0.0015
     27 C          -3.3150    3.6850   23.3689 C.ar    1  UNL1        0.0342
     28 C          -4.4653    4.5472   26.9910 C.3     1  UNL1        0.2525
     29 O          -3.7831    3.7437   25.9238 O.3     1  UNL1       -0.4714
@<TRIPOS>BOND
     1    28    29    1
     2    29    22    1
     3    22    23   ar
     4    23    24   ar
     5    24    25   ar
     6    25    26   ar
     7    26    20    1
     8    20    21    1
     9    20    16    1
    10    16    17   am
    11    17    18    2
    12    17     1    1
    13     1     2   ar
    14     2     3   ar
    15     3     4   ar
    16     4     7    1
    17     7     8   ar
    18     8     9   ar
    19     9    10   ar
    20    10    11   ar
    21    11    12    1
    22    11    13   ar
    23     4     5   ar
    24     5     6   ar
    25    26    27   ar
    26    27    22   ar
    27     6     1   ar
    28    13     7   ar
    29    16    19    1
    30    12    14    1
    31    12    15    1
@<TRIPOS>MOLECULE
*****
 29 31 0 0 0
SMALL
GASTEIGER

@<TRIPOS>ATOM
      1 C           0.4066    1.5020   21.2628 C.ar    1  UNL1        0.0534
      2 C           1.4537    1.3311   22.3233 C.ar    1  UNL1        0.0045
      3 C           2.4175    0.1842   22.2476 C.ar    1  UNL1        0.0001
      4 C           2.3343   -0.7917   21.1115 C.ar    1  UNL1        0.0001
      5 C           1.2873   -0.6207   20.0511 C.ar    1  UNL1        0.0001
      6 C           0.3235    0.5261   20.1267 C.ar    1  UNL1        0.0045
      7 C           3.2981   -1.9386   21.0359 C.ar    1  UNL1        0.0043
      8 C           4.1252   -2.3034   22.2329 C.ar    1  UNL1        0.0208
      9 C           5.0890   -3.4503   22.1573 C.ar    1  UNL1        0.1003
     10 N           5.2257   -4.2324   20.8846 N.ar    1  UNL1       -0.2296
     11 C           4.3987   -3.8676   19.6876 C.ar    1  UNL1        0.1254
     12 N           4.5354   -4.6497   18.4149 N.pl3   1  UNL1       -0.3426
     13 C           3.4348   -2.7207   19.7633 C.ar    1  UNL1        0.0339
     14 H           5.1680   -5.4024   18.3652 H       1  UNL1        0.1437
     15 H           3.9925   -4.4102   17.6293 H       1  UNL1        0.1437
     16 N          -1.9805    2.4624   20.9034 N.am    1  UNL1       -0.2987
     17 C          -0.5572    2.6489   21.3384 C.2     1  UNL1        0.2460
     18 O          -0.0976    3.9824   21.8491 O.2     1  UNL1       -0.2701
     19 H          -2.2821    1.5872   20.5682 H       1  UNL1        0.1500
     20 C          -2.9443    3.6093   20.9790 C.3     1  UNL1        0.0945
     21 C          -2.9970    4.6190   19.8710 C.3     1  UNL1        0.0262
     22 C          -6.2303    4.1394   23.1405 C.ar    1  UNL1        0.1385
     23 C          -5.6778    4.0207   24.5299 C.ar    1  UNL1        0.0369
     24 C          -4.2142    3.7648   24.7358 C.ar    1  UNL1        0.0028
     25 C          -3.3030    3.6277   23.5522 C.ar    1  UNL1       -0.0025
     26 C          -3.8555    3.7464   22.1627 C.ar    1  UNL1       -0.0015
     27 C          -5.3191    4.0022   21.9569 C.ar    1  UNL1        0.0342
     28 C          -8.5100    5.0081   24.0338 C.3     1  UNL1        0.2525
     29 O          -7.6939    4.3952   22.9346 O.3     1  UNL1       -0.4714
@<TRIPOS>BOND
     1    28    29    1
     2    29    22    1
     3    22    23   ar
     4    23    24   ar
     5    24    25   ar
     6    25    26   ar
     7    26    20    1
     8    20    21    1
     9    20    16    1
    10    16    17   am
    11    17    18    2
    12    17     1    1
    13     1     2   ar
    14     2     3   ar
    15     3     4   ar
    16     4     7    1
    17     7     8   ar
    18     8     9   ar
    19     9    10   ar
    20    10    11   ar
    21    11    12    1
    22    11    13   ar
    23     4     5   ar
    24     5     6   ar
    25    26    27   ar
    26    27    22   ar
    27     6     1   ar
    28    13     7   ar
    29    16    19    1
    30    12    14    1
    31    12    15    1
@<TRIPOS>MOLECULE
*****
 29 31 0 0 0
SMALL
GASTEIGER

@<TRIPOS>ATOM
      1 C          -6.3940  -18.5465   22.2316 C.ar    1  UNL1        0.0534
      2 C          -5.1906  -18.0713   22.9907 C.ar    1  UNL1        0.0045
      3 C          -3.8674  -17.9443   22.2957 C.ar    1  UNL1        0.0001
      4 C          -3.7476  -18.2925   20.8415 C.ar    1  UNL1        0.0001
      5 C          -4.9510  -18.7676   20.0825 C.ar    1  UNL1        0.0001
      6 C          -6.2741  -18.8946   20.7775 C.ar    1  UNL1        0.0045
      7 C          -2.4245  -18.1654   20.1465 C.ar    1  UNL1        0.0043
      8 C          -1.1546  -18.1680   20.9449 C.ar    1  UNL1        0.0208
      9 C           0.1686  -18.0410   20.2498 C.ar    1  UNL1        0.1003
     10 N           0.2218  -17.9114   18.7563 N.ar    1  UNL1       -0.2296
     11 C          -1.0480  -17.9088   17.9580 C.ar    1  UNL1        0.1254
     12 N          -0.9947  -17.7792   16.4645 N.pl3   1  UNL1       -0.3426
     13 C          -2.3712  -18.0358   18.6530 C.ar    1  UNL1        0.0339
     14 H          -0.1263  -17.6958   16.0083 H       1  UNL1        0.1437
     15 H          -1.8282  -17.7775   15.9405 H       1  UNL1        0.1437
     16 N          -8.4583  -19.9772   22.8960 N.am    1  UNL1       -0.2987
     17 C          -7.7171  -18.6735   22.9267 C.2     1  UNL1        0.2460
     18 O          -8.2991  -17.4968   23.6524 O.2     1  UNL1       -0.2701
     19 H          -8.0763  -20.7495   22.4197 H       1  UNL1        0.1500
     20 C          -9.7815  -20.1042   23.5911 C.3     1  UNL1        0.0945
     21 C          -9.9252  -21.0229   24.7681 C.3     1  UNL1        0.0262
     22 C         -13.2441  -18.1651   23.5785 C.ar    1  UNL1        0.1385
     23 C         -13.3197  -17.7293   22.1452 C.ar    1  UNL1        0.0369
     24 C         -12.2159  -18.0852   21.1938 C.ar    1  UNL1        0.0028
     25 C         -11.0365  -18.8768   21.6758 C.ar    1  UNL1       -0.0025
     26 C         -10.9609  -19.3126   23.1091 C.ar    1  UNL1       -0.0015
     27 C         -12.0647  -18.9567   24.0604 C.ar    1  UNL1        0.0342
     28 C         -14.3898  -18.4285   25.8953 C.3     1  UNL1        0.2525
     29 O         -14.3478  -17.8092   24.5298 O.3     1  UNL1       -0.4714
@<TRIPOS>BOND
     1    28    29    1
     2    29    22    1
     3    22    23   ar
     4    23    24   ar
     5    24    25   ar
     6    25    26   ar
     7    26    20    1
     8    20    21    1
     9    20    16    1
    10    16    17   am
    11    17    18    2
    12    17     1    1
    13     1     2   ar
    14     2     3   ar
    15     3     4   ar
    16     4     7    1
    17     7     8   ar
    18     8     9   ar
    19     9    10   ar
    20    10    11   ar
    21    11    12    1
    22    11    13   ar
    23     4     5   ar
    24     5     6   ar
    25    26    27   ar
    26    27    22   ar
    27     6     1   ar
    28    13     7   ar
    29    16    19    1
    30    12    14    1
    31    12    15    1
@<TRIPOS>MOLECULE
*****
 29 31 0 0 0
SMALL
GASTEIGER

@<TRIPOS>ATOM
      1 C           1.0161    1.7331   19.1042 C.ar    1  UNL1        0.0534
      2 C           2.3931    1.4896   18.5612 C.ar    1  UNL1        0.0045
      3 C           3.1503    0.2583   18.9618 C.ar    1  UNL1        0.0001
      4 C           2.5306   -0.7295   19.9055 C.ar    1  UNL1        0.0001
      5 C           1.1537   -0.4859   20.4484 C.ar    1  UNL1        0.0001
      6 C           0.3965    0.7454   20.0478 C.ar    1  UNL1        0.0045
      7 C           3.2878   -1.9608   20.3061 C.ar    1  UNL1        0.0043
      8 C           3.7691   -2.1190   21.7180 C.ar    1  UNL1        0.0208
      9 C           4.5264   -3.3503   22.1187 C.ar    1  UNL1        0.1003
     10 N           4.8022   -4.4234   21.1074 N.ar    1  UNL1       -0.2296
     11 C           4.3209   -4.2651   19.6956 C.ar    1  UNL1        0.1254
     12 N           4.5968   -5.3382   18.6844 N.pl3   1  UNL1       -0.3426
     13 C           3.5637   -3.0338   19.2950 C.ar    1  UNL1        0.0339
     14 H           5.0938   -6.1463   18.9473 H       1  UNL1        0.1437
     15 H           4.2808   -5.2343   17.7577 H       1  UNL1        0.1437
     16 N          -0.4911    2.9943   17.4049 N.am    1  UNL1       -0.2987
     17 C           0.2589    2.9644   18.7035 C.2     1  UNL1        0.2460
     18 O           0.2518    4.1659   19.6016 O.2     1  UNL1       -0.2701
     19 H          -0.4865    2.2057   16.8155 H       1  UNL1        0.1500
     20 C          -1.2484    4.2256   17.0043 C.3     1  UNL1        0.0945
     21 C          -0.5286    5.3712   16.3567 C.3     1  UNL1        0.0262
     22 C          -4.7759    3.9052   18.7942 C.ar    1  UNL1        0.1385
     23 C          -5.6795    4.4825   17.7452 C.ar    1  UNL1        0.0369
     24 C          -5.1060    4.9741   16.4493 C.ar    1  UNL1        0.0028
     25 C          -3.6290    4.8885   16.2023 C.ar    1  UNL1       -0.0025
     26 C          -2.7255    4.3112   17.2512 C.ar    1  UNL1       -0.0015
     27 C          -3.2989    3.8196   18.5472 C.ar    1  UNL1        0.0342
     28 C          -4.4417    3.1130   21.2458 C.3     1  UNL1        0.2525
     29 O          -5.3494    3.4136   20.0901 O.3     1  UNL1       -0.4714
@<TRIPOS>BOND
     1    28    29    1
     2    29    22    1
     3    22    23   ar
     4    23    24   ar
     5    24    25   ar
     6    25    26   ar
     7    26    20    1
     8    20    21    1
     9    20    16    1
    10    16    17   am
    11    17    18    2
    12    17     1    1
    13     1     2   ar
    14     2     3   ar
    15     3     4   ar
    16     4     7    1
    17     7     8   ar
    18     8     9   ar
    19     9    10   ar
    20    10    11   ar
    21    11    12    1
    22    11    13   ar
    23     4     5   ar
    24     5     6   ar
    25    26    27   ar
    26    27    22   ar
    27     6     1   ar
    28    13     7   ar
    29    16    19    1
    30    12    14    1
    31    12    15    1
@<TRIPOS>MOLECULE
*****
 29 31 0 0 0
SMALL
GASTEIGER

@<TRIPOS>ATOM
      1 C           0.4612    1.4359   21.2661 C.ar    1  UNL1        0.0534
      2 C           1.5642    1.3183   22.2759 C.ar    1  UNL1        0.0045
      3 C           2.5241    0.1677   22.2076 C.ar    1  UNL1        0.0001
      4 C           2.3810   -0.8653   21.1294 C.ar    1  UNL1        0.0001
      5 C           1.2780   -0.7477   20.1196 C.ar    1  UNL1        0.0001
      6 C           0.3181    0.4029   20.1880 C.ar    1  UNL1        0.0045
      7 C           3.3409   -2.0159   21.0610 C.ar    1  UNL1        0.0043
      8 C           4.1657   -2.3768   22.2608 C.ar    1  UNL1        0.0208
      9 C           5.1256   -3.5274   22.1925 C.ar    1  UNL1        0.1003
     10 N           5.2607   -4.3172   20.9243 N.ar    1  UNL1       -0.2296
     11 C           4.4359   -3.9563   19.7246 C.ar    1  UNL1        0.1254
     12 N           4.5709   -4.7460   18.4564 N.pl3   1  UNL1       -0.3426
     13 C           3.4760   -2.8056   19.7929 C.ar    1  UNL1        0.0339
     14 H           5.2009   -5.5012   18.4115 H       1  UNL1        0.1437
     15 H           4.0295   -4.5091   17.6690 H       1  UNL1        0.1437
     16 N          -0.9585    3.2556   20.0732 N.am    1  UNL1       -0.2987
     17 C          -0.4987    2.5865   21.3345 C.2     1  UNL1        0.2460
     18 O          -0.9988    3.0681   22.6642 O.2     1  UNL1       -0.2701
     19 H          -0.6303    2.9396   19.2005 H       1  UNL1        0.1500
     20 C          -1.9184    4.4062   20.1416 C.3     1  UNL1        0.0945
     21 C          -1.4135    5.7877   20.4357 C.3     1  UNL1        0.0262
     22 C          -5.8029    3.9998   20.8455 C.ar    1  UNL1        0.1385
     23 C          -6.3129    3.7135   19.4643 C.ar    1  UNL1        0.0369
     24 C          -5.3581    3.6581   18.3088 C.ar    1  UNL1        0.0028
     25 C          -3.8933    3.8890   18.5345 C.ar    1  UNL1       -0.0025
     26 C          -3.3833    4.1753   19.9158 C.ar    1  UNL1       -0.0015
     27 C          -4.3381    4.2307   21.0713 C.ar    1  UNL1        0.0342
     28 C          -6.2600    4.4190   23.3685 C.3     1  UNL1        0.2525
     29 O          -6.7578    4.0553   22.0011 O.3     1  UNL1       -0.4714
@<TRIPOS>BOND
     1    28    29    1
     2    29    22    1
     3    22    23   ar
     4    23    24   ar
     5    24    25   ar
     6    25    26   ar
     7    26    20    1
     8    20    21    1
     9    20    16    1
    10    16    17   am
    11    17    18    2
    12    17     1    1
    13     1     2   ar
    14     2     3   ar
    15     3     4   ar
    16     4     7    1
    17     7     8   ar
    18     8     9   ar
    19     9    10   ar
    20    10    11   ar
    21    11    12    1
    22    11    13   ar
    23     4     5   ar
    24     5     6   ar
    25    26    27   ar
    26    27    22   ar
    27     6     1   ar
    28    13     7   ar
    29    16    19    1
    30    12    14    1
    31    12    15    1
@<TRIPOS>MOLECULE
*****
 29 31 0 0 0
SMALL
GASTEIGER

@<TRIPOS>ATOM
      1 C           6.7019   -3.6986   22.3543 C.ar    1  UNL1        0.0534
      2 C           7.0476   -3.0976   21.0241 C.ar    1  UNL1        0.0045
      3 C           6.0232   -2.3005   20.2723 C.ar    1  UNL1        0.0001
      4 C           4.6531   -2.1044   20.8507 C.ar    1  UNL1        0.0001
      5 C           4.3075   -2.7054   22.1808 C.ar    1  UNL1        0.0001
      6 C           5.3319   -3.5025   22.9326 C.ar    1  UNL1        0.0045
      7 C           3.6287   -1.3073   20.0989 C.ar    1  UNL1        0.0043
      8 C           3.9632   -0.7355   18.7530 C.ar    1  UNL1        0.0208
      9 C           2.9388    0.0616   18.0012 C.ar    1  UNL1        0.1003
     10 N           1.5799    0.2869   18.5952 N.ar    1  UNL1       -0.2296
     11 C           1.2455   -0.2849   19.9410 C.ar    1  UNL1        0.1254
     12 N          -0.1133   -0.0596   20.5350 N.pl3   1  UNL1       -0.3426
     13 C           2.2699   -1.0820   20.6928 C.ar    1  UNL1        0.0339
     14 H          -0.7857    0.4636   20.0416 H       1  UNL1        0.1437
     15 H          -0.3328   -0.4348   21.4184 H       1  UNL1        0.1437
     16 N           7.4083   -5.8904   23.5572 N.am    1  UNL1       -0.2987
     17 C           7.7263   -4.4957   23.1062 C.2     1  UNL1        0.2460
     18 O           9.0689   -3.8979   23.4070 O.2     1  UNL1       -0.2701
     19 H           6.5271   -6.2827   23.3598 H       1  UNL1        0.1500
     20 C           8.4327   -6.6875   24.3090 C.3     1  UNL1        0.0945
     21 C           9.5176   -7.4072   23.5641 C.3     1  UNL1        0.0262
     22 C           7.3256   -6.0009   28.0578 C.ar    1  UNL1        0.1385
     23 C           8.2510   -6.9195   28.7993 C.ar    1  UNL1        0.0369
     24 C           9.2369   -7.7607   28.0442 C.ar    1  UNL1        0.0028
     25 C           9.2975   -7.6834   26.5474 C.ar    1  UNL1       -0.0025
     26 C           8.3721   -6.7649   25.8058 C.ar    1  UNL1       -0.0015
     27 C           7.3862   -5.9236   26.5610 C.ar    1  UNL1        0.0342
     28 C           6.7646   -4.4452   30.0615 C.3     1  UNL1        0.2525
     29 O           6.3397   -5.1597   28.8130 O.3     1  UNL1       -0.4714
@<TRIPOS>BOND
     1    28    29    1
     2    29    22    1
     3    22    23   ar
     4    23    24   ar
     5    24    25   ar
     6    25    26   ar
     7    26    20    1
     8    20    21    1
     9    20    16    1
    10    16    17   am
    11    17    18    2
    12    17     1    1
    13     1     2   ar
    14     2     3   ar
    15     3     4   ar
    16     4     7    1
    17     7     8   ar
    18     8     9   ar
    19     9    10   ar
    20    10    11   ar
    21    11    12    1
    22    11    13   ar
    23     4     5   ar
    24     5     6   ar
    25    26    27   ar
    26    27    22   ar
    27     6     1   ar
    28    13     7   ar
    29    16    19    1
    30    12    14    1
    31    12    15    1
@<TRIPOS>MOLECULE
*****
 29 31 0 0 0
SMALL
GASTEIGER

@<TRIPOS>ATOM
      1 C           6.0802   -3.5150   23.4845 C.ar    1  UNL1        0.0534
      2 C           5.5268   -2.4139   24.3397 C.ar    1  UNL1        0.0045
      3 C           5.8325   -2.3789   25.8079 C.ar    1  UNL1        0.0001
      4 C           6.6914   -3.4451   26.4207 C.ar    1  UNL1        0.0001
      5 C           7.2448   -4.5461   25.5655 C.ar    1  UNL1        0.0001
      6 C           6.9392   -4.5811   24.0974 C.ar    1  UNL1        0.0045
      7 C           6.9971   -3.4101   27.8889 C.ar    1  UNL1        0.0043
      8 C           7.6234   -2.1896   28.4957 C.ar    1  UNL1        0.0208
      9 C           7.9290   -2.1546   29.9638 C.ar    1  UNL1        0.1003
     10 N           7.6083   -3.3402   30.8251 N.ar    1  UNL1       -0.2296
     11 C           6.9820   -4.5606   30.2183 C.ar    1  UNL1        0.1254
     12 N           6.6613   -5.7461   31.0795 N.pl3   1  UNL1       -0.3426
     13 C           6.6764   -4.5956   28.7501 C.ar    1  UNL1        0.0339
     14 H           6.8619   -5.7232   32.0431 H       1  UNL1        0.1437
     15 H           6.2502   -6.5471   30.6812 H       1  UNL1        0.1437
     16 N           4.3579   -3.7054   21.5487 N.am    1  UNL1       -0.2987
     17 C           5.7746   -3.5500   22.0164 C.2     1  UNL1        0.2460
     18 O           6.8858   -3.4295   21.0159 O.2     1  UNL1       -0.2701
     19 H           3.6286   -3.7845   22.2053 H       1  UNL1        0.1500
     20 C           4.0523   -3.7404   20.0806 C.3     1  UNL1        0.0945
     21 C           4.0131   -5.0519   19.3537 C.3     1  UNL1        0.0262
     22 C           2.5087   -0.2116   19.1241 C.ar    1  UNL1        0.1385
     23 C           3.2529    0.0894   17.8570 C.ar    1  UNL1        0.0369
     24 C           4.2637   -0.8863   17.3311 C.ar    1  UNL1        0.0028
     25 C           4.5301   -2.1628   18.0723 C.ar    1  UNL1       -0.0025
     26 C           3.7859   -2.4638   19.3393 C.ar    1  UNL1       -0.0015
     27 C           2.7751   -1.4881   19.8652 C.ar    1  UNL1        0.0342
     28 C           0.3012    0.2694   20.4070 C.3     1  UNL1        0.2525
     29 O           1.4979    0.7641   19.6500 O.3     1  UNL1       -0.4714
@<TRIPOS>BOND
     1    28    29    1
     2    29    22    1
     3    22    23   ar
     4    23    24   ar
     5    24    25   ar
     6    25    26   ar
     7    26    20    1
     8    20    21    1
     9    20    16    1
    10    16    17   am
    11    17    18    2
    12    17     1    1
    13     1     2   ar
    14     2     3   ar
    15     3     4   ar
    16     4     7    1
    17     7     8   ar
    18     8     9   ar
    19     9    10   ar
    20    10    11   ar
    21    11    12    1
    22    11    13   ar
    23     4     5   ar
    24     5     6   ar
    25    26    27   ar
    26    27    22   ar
    27     6     1   ar
    28    13     7   ar
    29    16    19    1
    30    12    14    1
    31    12    15    1
@<TRIPOS>MOLECULE
*****
 29 31 0 0 0
SMALL
GASTEIGER

@<TRIPOS>ATOM
      1 C           1.7959    0.7433   23.8770 C.ar    1  UNL1        0.0534
      2 C           1.3875    1.3885   22.5858 C.ar    1  UNL1        0.0045
      3 C           1.9066    0.8547   21.2837 C.ar    1  UNL1        0.0001
      4 C           2.8340   -0.3243   21.2727 C.ar    1  UNL1        0.0001
      5 C           3.2423   -0.9694   22.5638 C.ar    1  UNL1        0.0001
      6 C           2.7232   -0.4356   23.8660 C.ar    1  UNL1        0.0045
      7 C           3.3530   -0.8581   19.9705 C.ar    1  UNL1        0.0043
      8 C           3.5022    0.0567   18.7910 C.ar    1  UNL1        0.0208
      9 C           4.0213   -0.4771   17.4889 C.ar    1  UNL1        0.1003
     10 N           4.3911   -1.9257   17.3662 N.ar    1  UNL1       -0.2296
     11 C           4.2419   -2.8403   18.5456 C.ar    1  UNL1        0.1254
     12 N           4.6118   -4.2889   18.4229 N.pl3   1  UNL1       -0.3426
     13 C           3.7229   -2.3065   19.8477 C.ar    1  UNL1        0.0339
     14 H           4.9524   -4.6393   17.5682 H       1  UNL1        0.1437
     15 H           4.5138   -4.8892   19.1970 H       1  UNL1        0.1437
     16 N          -0.1243    0.9634   25.6132 N.am    1  UNL1       -0.2987
     17 C           1.2768    1.2771   25.1792 C.2     1  UNL1        0.2460
     18 O           2.1590    2.1247   26.0473 O.2     1  UNL1       -0.2701
     19 H          -0.7032    0.4071   25.0435 H       1  UNL1        0.1500
     20 C          -0.6433    1.4972   26.9154 C.3     1  UNL1        0.0945
     21 C          -0.5372    0.6687   28.1613 C.3     1  UNL1        0.0262
     22 C          -3.3495    4.3927   26.7094 C.ar    1  UNL1        0.1385
     23 C          -2.5189    5.5842   27.0841 C.ar    1  UNL1        0.0369
     24 C          -1.0631    5.4134   27.4026 C.ar    1  UNL1        0.0028
     25 C          -0.4379    4.0511   27.3464 C.ar    1  UNL1       -0.0025
     26 C          -1.2685    2.8596   26.9717 C.ar    1  UNL1       -0.0015
     27 C          -2.7243    3.0304   26.6532 C.ar    1  UNL1        0.0342
     28 C          -5.3755    3.9606   25.1414 C.3     1  UNL1        0.2525
     29 O          -4.8053    4.5636   26.3909 O.3     1  UNL1       -0.4714
@<TRIPOS>BOND
     1    28    29    1
     2    29    22    1
     3    22    23   ar
     4    23    24   ar
     5    24    25   ar
     6    25    26   ar
     7    26    20    1
     8    20    21    1
     9    20    16    1
    10    16    17   am
    11    17    18    2
    12    17     1    1
    13     1     2   ar
    14     2     3   ar
    15     3     4   ar
    16     4     7    1
    17     7     8   ar
    18     8     9   ar
    19     9    10   ar
    20    10    11   ar
    21    11    12    1
    22    11    13   ar
    23     4     5   ar
    24     5     6   ar
    25    26    27   ar
    26    27    22   ar
    27     6     1   ar
    28    13     7   ar
    29    16    19    1
    30    12    14    1
    31    12    15    1
