@<TRIPOS>MOLECULE
*****
 29 32 0 0 0
SMALL
GASTEIGER

@<TRIPOS>ATOM
      1 C          -9.3298  -17.0751   23.7048 C.3     1  UNL1        0.1601
      2 C          -8.3812  -17.9105   22.8971 C.3     1  UNL1        0.1277
      3 N          -6.9263  -17.5500   22.8400 N.pl3   1  UNL1       -0.2740
      4 C          -6.4199  -16.3541   23.5906 C.3     1  UNL1        0.1257
      5 C          -7.3685  -15.5187   24.3983 C.3     1  UNL1        0.1640
      6 O          -8.8234  -15.8792   24.4554 O.3     1  UNL1       -0.3482
      7 C          -5.9778  -18.3854   22.0323 C.ar    1  UNL1        0.2036
      8 N          -4.5943  -17.8826   21.7442 N.ar    1  UNL1       -0.2133
      9 C          -3.6458  -18.7180   20.9365 C.ar    1  UNL1        0.1065
     10 C          -4.0807  -20.0561   20.4168 C.ar    1  UNL1        0.0815
     11 C          -5.4643  -20.5590   20.7049 C.ar    1  UNL1        0.2646
     12 O          -5.8993  -21.8971   20.1852 O.2     1  UNL1       -0.2668
     13 N          -6.4129  -19.7236   21.5126 N.ar    1  UNL1       -0.2667
     14 C          -7.7964  -20.2264   21.8007 C.3     1  UNL1        0.1363
     15 C          -2.2622  -18.2151   20.6484 C.ar    1  UNL1        0.1024
     16 C          -1.9017  -16.7924   20.9578 C.ar    1  UNL1        0.0414
     17 C          -0.5182  -16.2896   20.6697 C.ar    1  UNL1        0.1023
     18 N           0.5049  -17.2096   20.0723 N.ar    1  UNL1       -0.2224
     19 C           0.1444  -18.6324   19.7629 C.ar    1  UNL1        0.1989
     20 N          -1.2391  -19.1351   20.0510 N.ar    1  UNL1       -0.2224
     21 C         -11.7596  -16.7684   22.8376 C.ar    1  UNL1        0.1393
     22 C         -13.2145  -17.1289   22.8947 C.ar    1  UNL1        0.0663
     23 C         -13.6945  -18.1568   23.8761 C.ar    1  UNL1        0.1431
     24 F         -15.1494  -18.5173   23.9332 F       1  UNL1       -0.2041
     25 C         -12.7196  -18.8241   24.8004 C.ar    1  UNL1        0.0296
     26 C         -11.2647  -18.4635   24.7433 C.ar    1  UNL1        0.0034
     27 C         -10.7847  -17.4356   23.7619 C.ar    1  UNL1        0.0404
     28 C         -11.1169  -16.1030   20.4099 C.3     1  UNL1        0.2525
     29 O         -11.2796  -15.7405   21.8562 O.3     1  UNL1       -0.4716
@<TRIPOS>BOND
     1    28    29    1
     2    29    21    1
     3    21    22   ar
     4    22    23   ar
     5    23    24    1
     6    23    25   ar
     7    25    26   ar
     8    26    27   ar
     9     1    27    1
    10     1     2    1
    11     2     3    1
    12     3     7    1
    13     7     8   ar
    14     8     9   ar
    15     9    15    1
    16    15    16   ar
    17    16    17   ar
    18    17    18   ar
    19    18    19   ar
    20    19    20   ar
    21     9    10   ar
    22    10    11   ar
    23    11    12    2
    24    11    13   ar
    25    13    14    1
    26     3     4    1
    27     4     5    1
    28     5     6    1
    29    27    21   ar
    30     6     1    1
    31    13     7   ar
    32    20    15   ar
@<TRIPOS>MOLECULE
*****
 29 32 0 0 0
SMALL
GASTEIGER

@<TRIPOS>ATOM
      1 C          -9.2965  -16.9874   23.6927 C.3     1  UNL1        0.1601
      2 C          -8.3460  -17.8191   22.8833 C.3     1  UNL1        0.1277
      3 N          -6.8879  -17.4694   22.8463 N.pl3   1  UNL1       -0.2740
      4 C          -6.3801  -16.2879   23.6186 C.3     1  UNL1        0.1257
      5 C          -7.3305  -15.4562   24.4280 C.3     1  UNL1        0.1640
      6 O          -8.7887  -15.8060   24.4650 O.3     1  UNL1       -0.3482
      7 C          -5.9374  -18.3010   22.0370 C.ar    1  UNL1        0.2036
      8 N          -4.5551  -17.7944   21.7497 N.ar    1  UNL1       -0.2133
      9 C          -3.6047  -18.6261   20.9403 C.ar    1  UNL1        0.1065
     10 C          -4.0366  -19.9644   20.4184 C.ar    1  UNL1        0.0815
     11 C          -5.4189  -20.4710   20.7057 C.ar    1  UNL1        0.2646
     12 O          -5.8507  -21.8093   20.1837 O.2     1  UNL1       -0.2668
     13 N          -6.3693  -19.6394   21.5150 N.ar    1  UNL1       -0.2667
     14 C          -7.7516  -20.1460   21.8023 C.3     1  UNL1        0.1363
     15 C          -2.2224  -18.1194   20.6530 C.ar    1  UNL1        0.1024
     16 C          -1.2130  -19.0202   20.0050 C.ar    1  UNL1        0.0414
     17 C           0.1692  -18.5135   19.7177 C.ar    1  UNL1        0.1023
     18 N           0.5422  -17.1061   20.0784 N.ar    1  UNL1       -0.2224
     19 C          -0.4671  -16.2053   20.7264 C.ar    1  UNL1        0.1989
     20 N          -1.8494  -16.7120   21.0137 N.ar    1  UNL1       -0.2224
     21 C         -11.2260  -18.5020   24.5488 C.ar    1  UNL1        0.1393
     22 C         -12.6842  -18.8517   24.5858 C.ar    1  UNL1        0.0663
     23 C         -13.6710  -18.0366   23.8036 C.ar    1  UNL1        0.1431
     24 F         -15.1292  -18.3864   23.8406 F       1  UNL1       -0.2041
     25 C         -13.1997  -16.8718   22.9844 C.ar    1  UNL1        0.0296
     26 C         -11.7415  -16.5221   22.9475 C.ar    1  UNL1        0.0034
     27 C         -10.7547  -17.3372   23.7297 C.ar    1  UNL1        0.0404
     28 C          -9.7887  -20.6502   24.8117 C.3     1  UNL1        0.2525
     29 O         -10.2392  -19.3170   25.3310 O.3     1  UNL1       -0.4716
@<TRIPOS>BOND
     1    28    29    1
     2    29    21    1
     3    21    22   ar
     4    22    23   ar
     5    23    24    1
     6    23    25   ar
     7    25    26   ar
     8    26    27   ar
     9     1    27    1
    10     1     2    1
    11     2     3    1
    12     3     7    1
    13     7     8   ar
    14     8     9   ar
    15     9    15    1
    16    15    16   ar
    17    16    17   ar
    18    17    18   ar
    19    18    19   ar
    20    19    20   ar
    21     9    10   ar
    22    10    11   ar
    23    11    12    2
    24    11    13   ar
    25    13    14    1
    26     3     4    1
    27     4     5    1
    28     5     6    1
    29    27    21   ar
    30     6     1    1
    31    13     7   ar
    32    20    15   ar
@<TRIPOS>MOLECULE
*****
 29 32 0 0 0
SMALL
GASTEIGER

@<TRIPOS>ATOM
      1 C           6.2684   -2.9886   22.2632 C.3     1  UNL1        0.1601
      2 C           6.2506   -3.7564   23.5517 C.3     1  UNL1        0.1277
      3 N           7.5316   -4.2790   24.1311 N.pl3   1  UNL1       -0.2740
      4 C           8.8306   -4.0339   23.4220 C.3     1  UNL1        0.1257
      5 C           8.8483   -3.2661   22.1335 C.3     1  UNL1        0.1640
      6 O           7.5672   -2.7435   21.5541 O.3     1  UNL1       -0.3482
      7 C           7.5138   -5.0468   25.4196 C.ar    1  UNL1        0.2036
      8 N           7.2010   -4.3439   26.7072 N.ar    1  UNL1       -0.2133
      9 C           7.1832   -5.1117   27.9957 C.ar    1  UNL1        0.1065
     10 C           7.4782   -6.5824   27.9966 C.ar    1  UNL1        0.0815
     11 C           7.7911   -7.2853   26.7089 C.ar    1  UNL1        0.2646
     12 O           8.0861   -8.7560   26.7097 O.2     1  UNL1       -0.2668
     13 N           7.8089   -6.5176   25.4204 N.ar    1  UNL1       -0.2667
     14 C           8.1217   -7.2204   24.1327 C.3     1  UNL1        0.1363
     15 C           6.8704   -4.4087   29.2834 C.ar    1  UNL1        0.1024
     16 C           6.9784   -5.1454   30.5855 C.ar    1  UNL1        0.0414
     17 C           6.6655   -4.4425   31.8731 C.ar    1  UNL1        0.1023
     18 N           6.2447   -3.0028   31.8585 N.ar    1  UNL1       -0.2224
     19 C           6.1368   -2.2661   30.5564 C.ar    1  UNL1        0.1989
     20 N           6.4496   -2.9690   29.2689 N.ar    1  UNL1       -0.2224
     21 C           4.5128   -2.9570   20.3482 C.ar    1  UNL1        0.1393
     22 C           3.2317   -2.4344   19.7689 C.ar    1  UNL1        0.0663
     23 C           2.4251   -1.4208   20.5252 C.ar    1  UNL1        0.1431
     24 F           1.1439   -0.8982   19.9458 F       1  UNL1       -0.2041
     25 C           2.8995   -0.9298   21.8607 C.ar    1  UNL1        0.0296
     26 C           4.1806   -1.4524   22.4400 C.ar    1  UNL1        0.0034
     27 C           4.9872   -2.4660   21.6838 C.ar    1  UNL1        0.0404
     28 C           4.6276   -5.0410   18.8010 C.3     1  UNL1        0.2525
     29 O           5.3194   -3.9707   19.5920 O.3     1  UNL1       -0.4716
@<TRIPOS>BOND
     1    28    29    1
     2    29    21    1
     3    21    22   ar
     4    22    23   ar
     5    23    24    1
     6    23    25   ar
     7    25    26   ar
     8    26    27   ar
     9     1    27    1
    10     1     2    1
    11     2     3    1
    12     3     7    1
    13     7     8   ar
    14     8     9   ar
    15     9    15    1
    16    15    16   ar
    17    16    17   ar
    18    17    18   ar
    19    18    19   ar
    20    19    20   ar
    21     9    10   ar
    22    10    11   ar
    23    11    12    2
    24    11    13   ar
    25    13    14    1
    26     3     4    1
    27     4     5    1
    28     5     6    1
    29    27    21   ar
    30     6     1    1
    31    13     7   ar
    32    20    15   ar
@<TRIPOS>MOLECULE
*****
 29 32 0 0 0
SMALL
GASTEIGER

@<TRIPOS>ATOM
      1 C         -10.1374  -18.7688   21.9747 C.3     1  UNL1        0.1601
      2 C          -8.8458  -18.2040   22.4873 C.3     1  UNL1        0.1277
      3 N          -7.5853  -18.3728   21.6919 N.pl3   1  UNL1       -0.2740
      4 C          -7.6164  -19.1065   20.3839 C.3     1  UNL1        0.1257
      5 C          -8.9080  -19.6713   19.8713 C.3     1  UNL1        0.1640
      6 O         -10.1685  -19.5025   20.6668 O.3     1  UNL1       -0.3482
      7 C          -6.2937  -17.8079   22.2045 C.ar    1  UNL1        0.2036
      8 N          -5.0046  -18.1340   21.5104 N.ar    1  UNL1       -0.2133
      9 C          -3.7130  -17.5692   22.0229 C.ar    1  UNL1        0.1065
     10 C          -3.7105  -16.6783   23.2297 C.ar    1  UNL1        0.0815
     11 C          -4.9997  -16.3522   23.9239 C.ar    1  UNL1        0.2646
     12 O          -4.9972  -15.4613   25.1306 O.2     1  UNL1       -0.2668
     13 N          -6.2913  -16.9170   23.4113 N.ar    1  UNL1       -0.2667
     14 C          -7.5803  -16.5909   24.1055 C.3     1  UNL1        0.1363
     15 C          -2.4239  -17.8953   21.3287 C.ar    1  UNL1        0.1024
     16 C          -1.5235  -16.7905   20.8612 C.ar    1  UNL1        0.0414
     17 C          -0.2344  -17.1166   20.1670 C.ar    1  UNL1        0.1023
     18 N           0.1542  -18.5475   19.9404 N.ar    1  UNL1       -0.2224
     19 C          -0.7462  -19.6523   20.4079 C.ar    1  UNL1        0.1989
     20 N          -2.0352  -19.3262   21.1021 N.ar    1  UNL1       -0.2224
     21 C         -12.6012  -17.9617   22.1421 C.ar    1  UNL1        0.1393
     22 C         -13.8617  -17.7929   22.9375 C.ar    1  UNL1        0.0663
     23 C         -13.9188  -18.2624   24.3610 C.ar    1  UNL1        0.1431
     24 F         -15.1793  -18.0935   25.1564 F       1  UNL1       -0.2041
     25 C         -12.7154  -18.9007   24.9891 C.ar    1  UNL1        0.0296
     26 C         -11.4550  -19.0695   24.1936 C.ar    1  UNL1        0.0034
     27 C         -11.3979  -18.6000   22.7701 C.ar    1  UNL1        0.0404
     28 C         -11.9021  -16.1776   20.3876 C.3     1  UNL1        0.2525
     29 O         -12.5442  -17.4922   20.7186 O.3     1  UNL1       -0.4716
@<TRIPOS>BOND
     1    28    29    1
     2    29    21    1
     3    21    22   ar
     4    22    23   ar
     5    23    24    1
     6    23    25   ar
     7    25    26   ar
     8    26    27   ar
     9     1    27    1
    10     1     2    1
    11     2     3    1
    12     3     7    1
    13     7     8   ar
    14     8     9   ar
    15     9    15    1
    16    15    16   ar
    17    16    17   ar
    18    17    18   ar
    19    18    19   ar
    20    19    20   ar
    21     9    10   ar
    22    10    11   ar
    23    11    12    2
    24    11    13   ar
    25    13    14    1
    26     3     4    1
    27     4     5    1
    28     5     6    1
    29    27    21   ar
    30     6     1    1
    31    13     7   ar
    32    20    15   ar
@<TRIPOS>MOLECULE
*****
 29 32 0 0 0
SMALL
GASTEIGER

@<TRIPOS>ATOM
      1 C           4.0694   -0.7184   23.2608 C.3     1  UNL1        0.1601
      2 C           2.8810   -0.4174   24.1251 C.3     1  UNL1        0.1277
      3 N           3.0168    0.5228   25.2859 N.pl3   1  UNL1       -0.2740
      4 C           4.3411    1.1621   25.5824 C.3     1  UNL1        0.1257
      5 C           5.5295    0.8610   24.7180 C.3     1  UNL1        0.1640
      6 O           5.3936   -0.0793   23.5572 O.3     1  UNL1       -0.3482
      7 C           1.8285    0.8239   26.1503 C.ar    1  UNL1        0.2036
      8 N           0.7076    1.6662   25.6174 N.ar    1  UNL1       -0.2133
      9 C          -0.4808    1.9672   26.4818 C.ar    1  UNL1        0.1065
     10 C          -0.5483    1.4260   27.8791 C.ar    1  UNL1        0.0815
     11 C           0.5727    0.5836   28.4121 C.ar    1  UNL1        0.2646
     12 O           0.5052    0.0423   29.8093 O.2     1  UNL1       -0.2668
     13 N           1.7611    0.2826   27.5477 N.ar    1  UNL1       -0.2667
     14 C           2.8820   -0.5597   28.0806 C.3     1  UNL1        0.1363
     15 C          -1.6018    2.8096   25.9488 C.ar    1  UNL1        0.1024
     16 C          -1.6073    3.2261   24.5079 C.ar    1  UNL1        0.0414
     17 C          -2.7282    4.0684   23.9750 C.ar    1  UNL1        0.1023
     18 N          -3.8436    4.4942   24.8830 N.ar    1  UNL1       -0.2224
     19 C          -3.8381    4.0777   26.3240 C.ar    1  UNL1        0.1989
     20 N          -2.7172    3.2354   26.8569 N.ar    1  UNL1       -0.2224
     21 C           4.4340   -3.0681   22.2138 C.ar    1  UNL1        0.1393
     22 C           4.2981   -4.0083   21.0530 C.ar    1  UNL1        0.0663
     23 C           3.6617   -3.5391   19.7783 C.ar    1  UNL1        0.1431
     24 F           3.5258   -4.4794   18.6175 F       1  UNL1       -0.2041
     25 C           3.1612   -2.1297   19.6644 C.ar    1  UNL1        0.0296
     26 C           3.2971   -1.1895   20.8252 C.ar    1  UNL1        0.0034
     27 C           3.9335   -1.6587   22.0999 C.ar    1  UNL1        0.0404
     28 C           6.5550   -3.7407   23.5550 C.3     1  UNL1        0.2525
     29 O           5.0704   -3.5373   23.4885 O.3     1  UNL1       -0.4716
@<TRIPOS>BOND
     1    28    29    1
     2    29    21    1
     3    21    22   ar
     4    22    23   ar
     5    23    24    1
     6    23    25   ar
     7    25    26   ar
     8    26    27   ar
     9     1    27    1
    10     1     2    1
    11     2     3    1
    12     3     7    1
    13     7     8   ar
    14     8     9   ar
    15     9    15    1
    16    15    16   ar
    17    16    17   ar
    18    17    18   ar
    19    18    19   ar
    20    19    20   ar
    21     9    10   ar
    22    10    11   ar
    23    11    12    2
    24    11    13   ar
    25    13    14    1
    26     3     4    1
    27     4     5    1
    28     5     6    1
    29    27    21   ar
    30     6     1    1
    31    13     7   ar
    32    20    15   ar
@<TRIPOS>MOLECULE
*****
 29 32 0 0 0
SMALL
GASTEIGER

@<TRIPOS>ATOM
      1 C           3.6509   -0.2280   21.7439 C.3     1  UNL1        0.1601
      2 C           2.6763   -0.0016   22.8614 C.3     1  UNL1        0.1277
      3 N           2.5518    1.3573   23.4842 N.pl3   1  UNL1       -0.2740
      4 C           3.4021    2.4898   22.9896 C.3     1  UNL1        0.1257
      5 C           4.3767    2.2634   21.8721 C.3     1  UNL1        0.1640
      6 O           4.5011    0.9044   21.2493 O.3     1  UNL1       -0.3482
      7 C           1.5772    1.5838   24.6017 C.ar    1  UNL1        0.2036
      8 N           1.9531    1.2255   26.0089 N.ar    1  UNL1       -0.2133
      9 C           0.9784    1.4519   27.1264 C.ar    1  UNL1        0.1065
     10 C          -0.3721    2.0367   26.8367 C.ar    1  UNL1        0.0815
     11 C          -0.7481    2.3950   25.4294 C.ar    1  UNL1        0.2646
     12 O          -2.0987    2.9797   25.1397 O.2     1  UNL1       -0.2668
     13 N           0.2265    2.1685   24.3119 N.ar    1  UNL1       -0.2667
     14 C          -0.1494    2.5268   22.9047 C.3     1  UNL1        0.1363
     15 C           1.3544    1.0936   28.5337 C.ar    1  UNL1        0.1024
     16 C           1.0785    2.0549   29.6516 C.ar    1  UNL1        0.0414
     17 C           1.4545    1.6965   31.0587 C.ar    1  UNL1        0.1023
     18 N           2.1064    0.3769   31.3480 N.ar    1  UNL1       -0.2224
     19 C           2.3823   -0.5844   30.2301 C.ar    1  UNL1        0.1989
     20 N           2.0063   -0.2260   28.8229 N.ar    1  UNL1       -0.2224
     21 C           3.2725   -1.8222   19.7277 C.ar    1  UNL1        0.1393
     22 C           3.3969   -3.1811   19.1049 C.ar    1  UNL1        0.0663
     23 C           4.0242   -4.3048   19.8756 C.ar    1  UNL1        0.1431
     24 F           4.1487   -5.6637   19.2528 F       1  UNL1       -0.2041
     25 C           4.5271   -4.0695   21.2690 C.ar    1  UNL1        0.0296
     26 C           4.4027   -2.7106   21.8918 C.ar    1  UNL1        0.0034
     27 C           3.7754   -1.5870   21.1211 C.ar    1  UNL1        0.0404
     28 C           3.4181   -0.0108   17.8710 C.3     1  UNL1        0.2525
     29 O           2.6452   -0.6986   18.9570 O.3     1  UNL1       -0.4716
@<TRIPOS>BOND
     1    28    29    1
     2    29    21    1
     3    21    22   ar
     4    22    23   ar
     5    23    24    1
     6    23    25   ar
     7    25    26   ar
     8    26    27   ar
     9     1    27    1
    10     1     2    1
    11     2     3    1
    12     3     7    1
    13     7     8   ar
    14     8     9   ar
    15     9    15    1
    16    15    16   ar
    17    16    17   ar
    18    17    18   ar
    19    18    19   ar
    20    19    20   ar
    21     9    10   ar
    22    10    11   ar
    23    11    12    2
    24    11    13   ar
    25    13    14    1
    26     3     4    1
    27     4     5    1
    28     5     6    1
    29    27    21   ar
    30     6     1    1
    31    13     7   ar
    32    20    15   ar
@<TRIPOS>MOLECULE
*****
 29 32 0 0 0
SMALL
GASTEIGER

@<TRIPOS>ATOM
      1 C           4.1063    0.2403   29.1974 C.3     1  UNL1        0.1601
      2 C           4.5376   -1.1890   29.0521 C.3     1  UNL1        0.1277
      3 N           5.9357   -1.5913   29.4175 N.pl3   1  UNL1       -0.2740
      4 C           6.9025   -0.5643   29.9281 C.3     1  UNL1        0.1257
      5 C           6.4712    0.8650   30.0734 C.3     1  UNL1        0.1640
      6 O           5.0730    1.2673   29.7080 O.3     1  UNL1       -0.3482
      7 C           6.3670   -3.0206   29.2722 C.ar    1  UNL1        0.2036
      8 N           6.6686   -3.5785   27.9129 N.ar    1  UNL1       -0.2133
      9 C           7.0999   -5.0078   27.7677 C.ar    1  UNL1        0.1065
     10 C           7.2297   -5.8792   28.9817 C.ar    1  UNL1        0.0815
     11 C           6.9281   -5.3212   30.3411 C.ar    1  UNL1        0.2646
     12 O           7.0578   -6.1926   31.5551 O.2     1  UNL1       -0.2668
     13 N           6.4967   -3.8919   30.4863 N.ar    1  UNL1       -0.2667
     14 C           6.1951   -3.3340   31.8456 C.3     1  UNL1        0.1363
     15 C           7.4016   -5.5657   26.4083 C.ar    1  UNL1        0.1024
     16 C           7.7576   -7.0147   26.2544 C.ar    1  UNL1        0.0414
     17 C           8.0592   -7.5725   24.8950 C.ar    1  UNL1        0.1023
     18 N           8.0047   -6.6814   23.6896 N.ar    1  UNL1       -0.2224
     19 C           7.6487   -5.2325   23.8436 C.ar    1  UNL1        0.1989
     20 N           7.3471   -4.6746   25.2029 N.ar    1  UNL1       -0.2224
     21 C           1.6683    0.7970   29.9020 C.ar    1  UNL1        0.1393
     22 C           0.2703    1.1993   29.5366 C.ar    1  UNL1        0.0663
     23 C          -0.0880    1.4472   28.1013 C.ar    1  UNL1        0.1431
     24 F          -1.4861    1.8495   27.7359 F       1  UNL1       -0.2041
     25 C           0.9519    1.2928   27.0313 C.ar    1  UNL1        0.0296
     26 C           2.3499    0.8905   27.3967 C.ar    1  UNL1        0.0034
     27 C           2.7081    0.6426   28.8320 C.ar    1  UNL1        0.0404
     28 C           1.9569    1.6696   32.3320 C.3     1  UNL1        0.2525
     29 O           2.0265    0.5491   31.3373 O.3     1  UNL1       -0.4716
@<TRIPOS>BOND
     1    28    29    1
     2    29    21    1
     3    21    22   ar
     4    22    23   ar
     5    23    24    1
     6    23    25   ar
     7    25    26   ar
     8    26    27   ar
     9     1    27    1
    10     1     2    1
    11     2     3    1
    12     3     7    1
    13     7     8   ar
    14     8     9   ar
    15     9    15    1
    16    15    16   ar
    17    16    17   ar
    18    17    18   ar
    19    18    19   ar
    20    19    20   ar
    21     9    10   ar
    22    10    11   ar
    23    11    12    2
    24    11    13   ar
    25    13    14    1
    26     3     4    1
    27     4     5    1
    28     5     6    1
    29    27    21   ar
    30     6     1    1
    31    13     7   ar
    32    20    15   ar
@<TRIPOS>MOLECULE
*****
 29 32 0 0 0
SMALL
GASTEIGER

@<TRIPOS>ATOM
      1 C           4.0218   -0.6307   23.3124 C.3     1  UNL1        0.1601
      2 C           2.8062   -0.3218   24.1351 C.3     1  UNL1        0.1277
      3 N           2.8900    0.6761   25.2518 N.pl3   1  UNL1       -0.2740
      4 C           4.1895    1.3653   25.5459 C.3     1  UNL1        0.1257
      5 C           5.4052    1.0564   24.7232 C.3     1  UNL1        0.1640
      6 O           5.3213    0.0584   23.6064 O.3     1  UNL1       -0.3482
      7 C           1.6744    0.9850   26.0745 C.ar    1  UNL1        0.2036
      8 N           0.5811    1.8400   25.5056 N.ar    1  UNL1       -0.2133
      9 C          -0.6345    2.1488   26.3283 C.ar    1  UNL1        0.1065
     10 C          -0.7569    1.6027   27.7199 C.ar    1  UNL1        0.0815
     11 C           0.3364    0.7476   28.2889 C.ar    1  UNL1        0.2646
     12 O           0.2140    0.2014   29.6805 O.2     1  UNL1       -0.2668
     13 N           1.5520    0.4387   27.4662 N.ar    1  UNL1       -0.2667
     14 C           2.6452   -0.4163   28.0351 C.3     1  UNL1        0.1363
     15 C          -1.7278    3.0039   25.7593 C.ar    1  UNL1        0.1024
     16 C          -2.8352    3.4930   26.6449 C.ar    1  UNL1        0.0414
     17 C          -3.9284    4.3480   26.0759 C.ar    1  UNL1        0.1023
     18 N          -3.9142    4.7139   24.6213 N.ar    1  UNL1       -0.2224
     19 C          -2.8068    4.2248   23.7356 C.ar    1  UNL1        0.1989
     20 N          -1.7136    3.3698   24.3047 N.ar    1  UNL1       -0.2224
     21 C           3.2829   -1.2512   20.9002 C.ar    1  UNL1        0.1393
     22 C           3.1991   -2.2492   19.7835 C.ar    1  UNL1        0.0663
     23 C           3.7702   -3.6246   19.9624 C.ar    1  UNL1        0.1431
     24 F           3.6864   -4.6226   18.8456 F       1  UNL1       -0.2041
     25 C           4.4252   -4.0021   21.2579 C.ar    1  UNL1        0.0296
     26 C           4.5091   -3.0041   22.3746 C.ar    1  UNL1        0.0034
     27 C           3.9379   -1.6287   22.1957 C.ar    1  UNL1        0.0404
     28 C           1.2264    0.3299   20.7563 C.3     1  UNL1        0.2525
     29 O           2.7118    0.1242   20.7213 O.3     1  UNL1       -0.4716
@<TRIPOS>BOND
     1    28    29    1
     2    29    21    1
     3    21    22   ar
     4    22    23   ar
     5    23    24    1
     6    23    25   ar
     7    25    26   ar
     8    26    27   ar
     9     1    27    1
    10     1     2    1
    11     2     3    1
    12     3     7    1
    13     7     8   ar
    14     8     9   ar
    15     9    15    1
    16    15    16   ar
    17    16    17   ar
    18    17    18   ar
    19    18    19   ar
    20    19    20   ar
    21     9    10   ar
    22    10    11   ar
    23    11    12    2
    24    11    13   ar
    25    13    14    1
    26     3     4    1
    27     4     5    1
    28     5     6    1
    29    27    21   ar
    30     6     1    1
    31    13     7   ar
    32    20    15   ar
@<TRIPOS>MOLECULE
*****
 29 32 0 0 0
SMALL
GASTEIGER

@<TRIPOS>ATOM
      1 C           7.5717   -4.1557   27.6406 C.3     1  UNL1        0.1601
      2 C           6.4558   -3.6001   28.4749 C.3     1  UNL1        0.1277
      3 N           6.2204   -2.1195   28.5224 N.pl3   1  UNL1       -0.2740
      4 C           7.1009   -1.1944   27.7355 C.3     1  UNL1        0.1257
      5 C           8.2167   -1.7500   26.9012 C.3     1  UNL1        0.1640
      6 O           8.4522   -3.2307   26.8537 O.3     1  UNL1       -0.3482
      7 C           5.1045   -1.5638   29.3567 C.ar    1  UNL1        0.2036
      8 N           3.8676   -1.0314   28.6961 N.ar    1  UNL1       -0.2133
      9 C           2.7517   -0.4757   29.5304 C.ar    1  UNL1        0.1065
     10 C           2.8727   -0.4526   31.0253 C.ar    1  UNL1        0.0815
     11 C           4.1097   -0.9851   31.6860 C.ar    1  UNL1        0.2646
     12 O           4.2307   -0.9620   33.1809 O.2     1  UNL1       -0.2668
     13 N           5.2256   -1.5407   30.8517 N.ar    1  UNL1       -0.2667
     14 C           6.4625   -2.0732   31.5122 C.3     1  UNL1        0.1363
     15 C           1.5147    0.0568   28.8698 C.ar    1  UNL1        0.1024
     16 C           1.6219    0.8273   27.5873 C.ar    1  UNL1        0.0414
     17 C           0.3849    1.3597   26.9267 C.ar    1  UNL1        0.1023
     18 N          -0.9592    1.1217   27.5486 N.ar    1  UNL1       -0.2224
     19 C          -1.0663    0.3512   28.8311 C.ar    1  UNL1        0.1989
     20 N           0.1706   -0.1813   29.4916 N.ar    1  UNL1       -0.2224
     21 C           8.6360   -6.2984   28.6536 C.ar    1  UNL1        0.1393
     22 C           8.8714   -7.7790   28.6061 C.ar    1  UNL1        0.0663
     23 C           8.2779   -8.5976   27.4981 C.ar    1  UNL1        0.1431
     24 F           8.5133  -10.0783   27.4506 F       1  UNL1       -0.2041
     25 C           7.4491   -7.9356   26.4376 C.ar    1  UNL1        0.0296
     26 C           7.2137   -6.4550   26.4851 C.ar    1  UNL1        0.0034
     27 C           7.8071   -5.6364   27.5931 C.ar    1  UNL1        0.0404
     28 C           8.5456   -5.4146   31.0950 C.3     1  UNL1        0.2525
     29 O           9.2295   -5.4798   29.7616 O.3     1  UNL1       -0.4716
@<TRIPOS>BOND
     1    28    29    1
     2    29    21    1
     3    21    22   ar
     4    22    23   ar
     5    23    24    1
     6    23    25   ar
     7    25    26   ar
     8    26    27   ar
     9     1    27    1
    10     1     2    1
    11     2     3    1
    12     3     7    1
    13     7     8   ar
    14     8     9   ar
    15     9    15    1
    16    15    16   ar
    17    16    17   ar
    18    17    18   ar
    19    18    19   ar
    20    19    20   ar
    21     9    10   ar
    22    10    11   ar
    23    11    12    2
    24    11    13   ar
    25    13    14    1
    26     3     4    1
    27     4     5    1
    28     5     6    1
    29    27    21   ar
    30     6     1    1
    31    13     7   ar
    32    20    15   ar
