@<TRIPOS>MOLECULE
*****
 35 39 0 0 0
SMALL
GASTEIGER

@<TRIPOS>ATOM
      1 O           1.6429    0.9165   22.8865 O.2     1  UNL1       -0.2522
      2 C           2.3935    0.1051   23.9005 C.2     1  UNL1        0.3082
      3 N           2.1418    0.3151   25.3642 N.am    1  UNL1       -0.2656
      4 N           3.3958   -0.9162   23.4507 N.am    1  UNL1       -0.2576
      5 C           4.1464   -1.7276   24.4647 C.3     1  UNL1        0.1018
      6 C           5.1487   -2.7490   24.0150 C.3     1  UNL1        0.0671
      7 C           5.4004   -2.9589   22.5512 C.ar    1  UNL1        0.0586
      8 N           6.4027   -3.9802   22.1015 N.ar    1  UNL1       -0.2483
      9 C           6.6544   -4.1902   20.6378 C.ar    1  UNL1        0.0984
     10 C           5.9038   -3.3788   19.6238 C.ar    1  UNL1        0.0204
     11 C           4.9015   -2.3575   20.0735 C.ar    1  UNL1        0.0004
     12 C           4.6498   -2.1475   21.5372 C.ar    1  UNL1        0.0136
     13 C           3.6475   -1.1262   21.9870 C.3     1  UNL1        0.1231
     14 H           2.6345   -0.2175   26.0298 H       1  UNL1        0.1565
     15 C           2.8969   -0.3148   20.9730 C.ar    1  UNL1        0.0001
     16 C           3.4731    0.9754   20.4693 C.ar    1  UNL1       -0.0000
     17 C           2.7225    1.7867   19.4553 C.ar    1  UNL1        0.0294
     18 C           1.3957    1.3080   18.9449 C.ar    1  UNL1        0.1401
     19 F           0.6451    2.1194   17.9309 F       1  UNL1       -0.2042
     20 C           0.8195    0.0179   19.4486 C.ar    1  UNL1        0.0294
     21 C           1.5701   -0.7935   20.4626 C.ar    1  UNL1       -0.0000
     22 C           1.1395    1.3364   25.8139 C.ar    1  UNL1        0.0906
     23 C           1.2534    2.7564   25.3443 C.ar    1  UNL1        0.1199
     24 N           0.2510    3.7777   25.7941 N.ar    1  UNL1       -0.1911
     25 C          -0.8651    3.3790   26.7134 C.ar    1  UNL1        0.3247
     26 N          -0.9790    1.9590   27.1830 N.ar    1  UNL1       -0.1911
     27 C           0.0233    0.9377   26.7333 C.ar    1  UNL1        0.1199
     28 O          -1.8674    4.4004   27.1631 O.3     1  UNL1       -0.4223
     29 C          -3.2138    4.4701   26.5056 C.ar    1  UNL1        0.1488
     30 C          -3.4742    3.6983   25.2461 C.ar    1  UNL1        0.0399
     31 C          -4.8207    3.7680   24.5886 C.ar    1  UNL1        0.0328
     32 C          -5.9066    4.6095   25.1906 C.ar    1  UNL1        0.1403
     33 F          -7.2530    4.6792   24.5331 F       1  UNL1       -0.2042
     34 C          -5.6462    5.3814   26.4502 C.ar    1  UNL1        0.0328
     35 C          -4.2998    5.3116   27.1077 C.ar    1  UNL1        0.0399
@<TRIPOS>BOND
     1     1     2    2
     2     2     3   am
     3     3    22    1
     4    22    23   ar
     5    23    24   ar
     6    24    25   ar
     7    25    28    1
     8    28    29    1
     9    29    30   ar
    10    30    31   ar
    11    31    32   ar
    12    32    33    1
    13    32    34   ar
    14    34    35   ar
    15    25    26   ar
    16    26    27   ar
    17     2     4   am
    18     4     5    1
    19     5     6    1
    20     6     7    1
    21     7     8   ar
    22     8     9   ar
    23     9    10   ar
    24    10    11   ar
    25    11    12   ar
    26    12    13    1
    27    13    15    1
    28    15    16   ar
    29    16    17   ar
    30    17    18   ar
    31    18    19    1
    32    18    20   ar
    33    20    21   ar
    34    27    22   ar
    35    13     4    1
    36    21    15   ar
    37    35    29   ar
    38    12     7   ar
    39     3    14    1
@<TRIPOS>MOLECULE
*****
 35 39 0 0 0
SMALL
GASTEIGER

@<TRIPOS>ATOM
      1 O          -1.0626    3.2263   22.9122 O.2     1  UNL1       -0.2522
      2 C          -2.0532    3.1152   21.7913 C.2     1  UNL1        0.3082
      3 N          -1.6475    2.4859   20.4916 N.am    1  UNL1       -0.2656
      4 N          -3.4494    3.6335   21.9701 N.am    1  UNL1       -0.2576
      5 C          -4.4400    3.5224   20.8492 C.3     1  UNL1        0.1018
      6 C          -5.8362    4.0406   21.0279 C.3     1  UNL1        0.0671
      7 C          -6.2419    4.6700   22.3277 C.ar    1  UNL1        0.0586
      8 N          -7.6381    5.1882   22.5065 N.ar    1  UNL1       -0.2483
      9 C          -8.0438    5.8175   23.8062 C.ar    1  UNL1        0.0984
     10 C          -7.0533    5.9286   24.9271 C.ar    1  UNL1        0.0204
     11 C          -5.6571    5.4104   24.7484 C.ar    1  UNL1        0.0004
     12 C          -5.2514    4.7811   23.4486 C.ar    1  UNL1        0.0136
     13 C          -3.8551    4.2628   23.2698 C.3     1  UNL1        0.1231
     14 H          -2.2976    2.4130   19.7559 H       1  UNL1        0.1565
     15 C          -2.8646    4.3739   24.3908 C.ar    1  UNL1        0.0001
     16 C          -2.7269    3.2577   25.3834 C.ar    1  UNL1       -0.0000
     17 C          -1.7364    3.3688   26.5043 C.ar    1  UNL1        0.0294
     18 C          -0.8836    4.5962   26.6327 C.ar    1  UNL1        0.1401
     19 F           0.1069    4.7073   27.7536 F       1  UNL1       -0.2042
     20 C          -1.0213    5.7123   25.6401 C.ar    1  UNL1        0.0294
     21 C          -2.0118    5.6012   24.5192 C.ar    1  UNL1       -0.0000
     22 C          -0.2513    1.9677   20.3128 C.ar    1  UNL1        0.0906
     23 C           0.3514    1.0637   21.3470 C.ar    1  UNL1        0.1199
     24 N           1.7477    0.5454   21.1682 N.ar    1  UNL1       -0.1911
     25 C           2.5412    0.9313   19.9552 C.ar    1  UNL1        0.3247
     26 N           1.9386    1.8353   18.9210 N.ar    1  UNL1       -0.1911
     27 C           0.5424    2.3535   19.0998 C.ar    1  UNL1        0.1199
     28 O           3.9375    0.4130   19.7765 O.3     1  UNL1       -0.4223
     29 C           4.1628   -1.0227   19.4051 C.ar    1  UNL1        0.1488
     30 C           5.4039   -1.4193   18.6620 C.ar    1  UNL1        0.0399
     31 C           5.6293   -2.8550   18.2907 C.ar    1  UNL1        0.0328
     32 C           4.6134   -3.8941   18.6624 C.ar    1  UNL1        0.1403
     33 F           4.8388   -5.3299   18.2910 F       1  UNL1       -0.2042
     34 C           3.3722   -3.4976   19.4055 C.ar    1  UNL1        0.0328
     35 C           3.1469   -2.0619   19.7769 C.ar    1  UNL1        0.0399
@<TRIPOS>BOND
     1     1     2    2
     2     2     3   am
     3     3    22    1
     4    22    23   ar
     5    23    24   ar
     6    24    25   ar
     7    25    28    1
     8    28    29    1
     9    29    30   ar
    10    30    31   ar
    11    31    32   ar
    12    32    33    1
    13    32    34   ar
    14    34    35   ar
    15    25    26   ar
    16    26    27   ar
    17     2     4   am
    18     4     5    1
    19     5     6    1
    20     6     7    1
    21     7     8   ar
    22     8     9   ar
    23     9    10   ar
    24    10    11   ar
    25    11    12   ar
    26    12    13    1
    27    13    15    1
    28    15    16   ar
    29    16    17   ar
    30    17    18   ar
    31    18    19    1
    32    18    20   ar
    33    20    21   ar
    34    27    22   ar
    35    13     4    1
    36    21    15   ar
    37    35    29   ar
    38    12     7   ar
    39     3    14    1
@<TRIPOS>MOLECULE
*****
 35 39 0 0 0
SMALL
GASTEIGER

@<TRIPOS>ATOM
      1 O          -1.9327    3.0835   21.0039 O.2     1  UNL1       -0.2522
      2 C          -1.3379    2.8933   22.3676 C.2     1  UNL1        0.3082
      3 N          -0.0101    2.2120   22.5183 N.am    1  UNL1       -0.2656
      4 N          -2.0708    3.3845   23.5808 N.am    1  UNL1       -0.2576
      5 C          -1.4759    3.1943   24.9446 C.3     1  UNL1        0.1018
      6 C          -2.2088    3.6854   26.1577 C.3     1  UNL1        0.0671
      7 C          -3.5367    4.3667   26.0070 C.ar    1  UNL1        0.0586
      8 N          -4.2696    4.8578   27.2201 N.ar    1  UNL1       -0.2483
      9 C          -5.5974    5.5391   27.0694 C.ar    1  UNL1        0.0984
     10 C          -6.1922    5.7293   25.7056 C.ar    1  UNL1        0.0204
     11 C          -5.4594    5.2382   24.4925 C.ar    1  UNL1        0.0004
     12 C          -4.1316    4.5569   24.6432 C.ar    1  UNL1        0.0136
     13 C          -3.3986    4.0658   23.4301 C.3     1  UNL1        0.1231
     14 H           0.3804    2.0872   23.4134 H       1  UNL1        0.1565
     15 C          -3.9935    4.2560   22.0663 C.ar    1  UNL1        0.0001
     16 C          -4.8516    3.1820   21.4659 C.ar    1  UNL1       -0.0000
     17 C          -5.4465    3.3722   20.1021 C.ar    1  UNL1        0.0294
     18 C          -5.1833    4.6364   19.3387 C.ar    1  UNL1        0.1401
     19 F          -5.7782    4.8266   17.9749 F       1  UNL1       -0.2042
     20 C          -4.3252    5.7102   19.9391 C.ar    1  UNL1        0.0294
     21 C          -3.7303    5.5200   21.3029 C.ar    1  UNL1       -0.0000
     22 C           0.7228    1.7209   21.3053 C.ar    1  UNL1        0.0906
     23 C           1.7394    2.5982   20.6369 C.ar    1  UNL1        0.1199
     24 N           2.4723    2.1070   19.4237 N.ar    1  UNL1       -0.1911
     25 C           2.1886    0.7386   18.8790 C.ar    1  UNL1        0.3247
     26 N           1.1720   -0.1388   19.5474 N.ar    1  UNL1       -0.1911
     27 C           0.4391    0.3523   20.7605 C.ar    1  UNL1        0.1199
     28 O           2.9215    0.2475   17.6659 O.3     1  UNL1       -0.4223
     29 C           4.2324   -0.4653   17.8191 C.ar    1  UNL1        0.1488
     30 C           5.5192    0.2875   17.6537 C.ar    1  UNL1        0.0399
     31 C           6.8301   -0.4252   17.8069 C.ar    1  UNL1        0.0328
     32 C           6.8543   -1.8908   18.1254 C.ar    1  UNL1        0.1403
     33 F           8.1652   -2.6036   18.2786 F       1  UNL1       -0.2042
     34 C           5.5674   -2.6437   18.2908 C.ar    1  UNL1        0.0328
     35 C           4.2565   -1.9309   18.1376 C.ar    1  UNL1        0.0399
@<TRIPOS>BOND
     1     1     2    2
     2     2     3   am
     3     3    22    1
     4    22    23   ar
     5    23    24   ar
     6    24    25   ar
     7    25    28    1
     8    28    29    1
     9    29    30   ar
    10    30    31   ar
    11    31    32   ar
    12    32    33    1
    13    32    34   ar
    14    34    35   ar
    15    25    26   ar
    16    26    27   ar
    17     2     4   am
    18     4     5    1
    19     5     6    1
    20     6     7    1
    21     7     8   ar
    22     8     9   ar
    23     9    10   ar
    24    10    11   ar
    25    11    12   ar
    26    12    13    1
    27    13    15    1
    28    15    16   ar
    29    16    17   ar
    30    17    18   ar
    31    18    19    1
    32    18    20   ar
    33    20    21   ar
    34    27    22   ar
    35    13     4    1
    36    21    15   ar
    37    35    29   ar
    38    12     7   ar
    39     3    14    1
@<TRIPOS>MOLECULE
*****
 35 39 0 0 0
SMALL
GASTEIGER

@<TRIPOS>ATOM
      1 O           3.3922    0.9819   32.3205 O.2     1  UNL1       -0.2522
      2 C           3.5710    1.1771   33.7970 C.2     1  UNL1        0.3082
      3 N           4.4534    0.2466   34.5751 N.am    1  UNL1       -0.2656
      4 N           2.8673    2.3028   34.4953 N.am    1  UNL1       -0.2576
      5 C           3.0461    2.4980   35.9718 C.3     1  UNL1        0.1018
      6 C           2.3424    3.6237   36.6702 C.3     1  UNL1        0.0671
      7 C           1.4600    4.5542   35.8920 C.ar    1  UNL1        0.0586
      8 N           0.7564    5.6799   36.5904 N.ar    1  UNL1       -0.2483
      9 C          -0.1260    6.6104   35.8123 C.ar    1  UNL1        0.0984
     10 C          -0.3048    6.4152   34.3358 C.ar    1  UNL1        0.0204
     11 C           0.3988    5.2896   33.6375 C.ar    1  UNL1        0.0004
     12 C           1.2812    4.3591   34.4156 C.ar    1  UNL1        0.0136
     13 C           1.9849    3.2333   33.7172 C.3     1  UNL1        0.1231
     14 H           4.5707    0.3747   35.5442 H       1  UNL1        0.1565
     15 C           1.8061    3.0381   32.2408 C.ar    1  UNL1        0.0001
     16 C           2.7361    3.7136   31.2769 C.ar    1  UNL1       -0.0000
     17 C           2.5573    3.5185   29.8004 C.ar    1  UNL1        0.0294
     18 C           1.4486    2.6478   29.2878 C.ar    1  UNL1        0.1401
     19 F           1.2698    2.4526   27.8114 F       1  UNL1       -0.2042
     20 C           0.5187    1.9724   30.2517 C.ar    1  UNL1        0.0294
     21 C           0.6974    2.1675   31.7281 C.ar    1  UNL1       -0.0000
     22 C           5.1570   -0.8791   33.8768 C.ar    1  UNL1        0.0906
     23 C           6.5873   -0.7216   33.4531 C.ar    1  UNL1        0.1199
     24 N           7.2909   -1.8474   32.7547 N.ar    1  UNL1       -0.1911
     25 C           6.5642   -3.1305   32.4800 C.ar    1  UNL1        0.3247
     26 N           5.1339   -3.2879   32.9037 N.ar    1  UNL1       -0.1911
     27 C           4.4303   -2.1623   33.6020 C.ar    1  UNL1        0.1199
     28 O           7.2679   -4.2562   31.7817 O.3     1  UNL1       -0.4223
     29 C           7.0692   -4.4666   30.3099 C.ar    1  UNL1        0.1488
     30 C           6.5355   -3.3531   29.4583 C.ar    1  UNL1        0.0399
     31 C           6.3369   -3.5636   27.9865 C.ar    1  UNL1        0.0328
     32 C           6.6719   -4.8876   27.3662 C.ar    1  UNL1        0.1403
     33 F           6.4733   -5.0981   25.8944 F       1  UNL1       -0.2042
     34 C           7.2057   -6.0012   28.2178 C.ar    1  UNL1        0.0328
     35 C           7.4043   -5.7907   29.6896 C.ar    1  UNL1        0.0399
@<TRIPOS>BOND
     1     1     2    2
     2     2     3   am
     3     3    22    1
     4    22    23   ar
     5    23    24   ar
     6    24    25   ar
     7    25    28    1
     8    28    29    1
     9    29    30   ar
    10    30    31   ar
    11    31    32   ar
    12    32    33    1
    13    32    34   ar
    14    34    35   ar
    15    25    26   ar
    16    26    27   ar
    17     2     4   am
    18     4     5    1
    19     5     6    1
    20     6     7    1
    21     7     8   ar
    22     8     9   ar
    23     9    10   ar
    24    10    11   ar
    25    11    12   ar
    26    12    13    1
    27    13    15    1
    28    15    16   ar
    29    16    17   ar
    30    17    18   ar
    31    18    19    1
    32    18    20   ar
    33    20    21   ar
    34    27    22   ar
    35    13     4    1
    36    21    15   ar
    37    35    29   ar
    38    12     7   ar
    39     3    14    1
@<TRIPOS>MOLECULE
*****
 35 39 0 0 0
SMALL
GASTEIGER

@<TRIPOS>ATOM
      1 O           3.8171    0.6028   19.9559 O.2     1  UNL1       -0.2522
      2 C           3.5038   -0.3457   21.0748 C.2     1  UNL1        0.3082
      3 N           2.2405   -0.1806   21.8665 N.am    1  UNL1       -0.2656
      4 N           4.4539   -1.4594   21.4021 N.am    1  UNL1       -0.2576
      5 C           4.1406   -2.4080   22.5211 C.3     1  UNL1        0.1018
      6 C           5.0906   -3.5216   22.8485 C.3     1  UNL1        0.0671
      7 C           6.3540   -3.6868   22.0568 C.ar    1  UNL1        0.0586
      8 N           7.3040   -4.8005   22.3841 N.ar    1  UNL1       -0.2483
      9 C           8.5673   -4.9656   21.5925 C.ar    1  UNL1        0.0984
     10 C           8.8806   -4.0170   20.4735 C.ar    1  UNL1        0.0204
     11 C           7.9306   -2.9034   20.1462 C.ar    1  UNL1        0.0004
     12 C           6.6673   -2.7383   20.9378 C.ar    1  UNL1        0.0136
     13 C           5.7172   -1.6245   20.6105 C.3     1  UNL1        0.1231
     14 H           2.0349   -0.8032   22.6009 H       1  UNL1        0.1565
     15 C           6.0305   -0.6760   19.4915 C.ar    1  UNL1        0.0001
     16 C           5.5621   -0.9782   18.0989 C.ar    1  UNL1       -0.0000
     17 C           5.8754   -0.0296   16.9799 C.ar    1  UNL1        0.0294
     18 C           6.6571    1.2211   17.2536 C.ar    1  UNL1        0.1401
     19 F           6.9704    2.1696   16.1346 F       1  UNL1       -0.2042
     20 C           7.1254    1.5232   18.6462 C.ar    1  UNL1        0.0294
     21 C           6.8121    0.5747   19.7651 C.ar    1  UNL1       -0.0000
     22 C           1.2905    0.9331   21.5391 C.ar    1  UNL1        0.0906
     23 C           1.4458    2.2702   22.2009 C.ar    1  UNL1        0.1199
     24 N           0.4957    3.3839   21.8735 N.ar    1  UNL1       -0.1911
     25 C          -0.6096    3.1604   20.8844 C.ar    1  UNL1        0.3247
     26 N          -0.7649    1.8232   20.2227 N.ar    1  UNL1       -0.1911
     27 C           0.1851    0.7096   20.5500 C.ar    1  UNL1        0.1199
     28 O          -1.5596    4.2741   20.5571 O.3     1  UNL1       -0.4223
     29 C          -2.9455    3.9607   20.0762 C.ar    1  UNL1        0.1488
     30 C          -3.2666    4.0365   18.6130 C.ar    1  UNL1        0.0399
     31 C          -4.6524    3.7231   18.1321 C.ar    1  UNL1        0.0328
     32 C          -5.7171    3.3340   19.1144 C.ar    1  UNL1        0.1403
     33 F          -7.1030    3.0207   18.6335 F       1  UNL1       -0.2042
     34 C          -5.3960    3.2582   20.5777 C.ar    1  UNL1        0.0328
     35 C          -4.0102    3.5716   21.0586 C.ar    1  UNL1        0.0399
@<TRIPOS>BOND
     1     1     2    2
     2     2     3   am
     3     3    22    1
     4    22    23   ar
     5    23    24   ar
     6    24    25   ar
     7    25    28    1
     8    28    29    1
     9    29    30   ar
    10    30    31   ar
    11    31    32   ar
    12    32    33    1
    13    32    34   ar
    14    34    35   ar
    15    25    26   ar
    16    26    27   ar
    17     2     4   am
    18     4     5    1
    19     5     6    1
    20     6     7    1
    21     7     8   ar
    22     8     9   ar
    23     9    10   ar
    24    10    11   ar
    25    11    12   ar
    26    12    13    1
    27    13    15    1
    28    15    16   ar
    29    16    17   ar
    30    17    18   ar
    31    18    19    1
    32    18    20   ar
    33    20    21   ar
    34    27    22   ar
    35    13     4    1
    36    21    15   ar
    37    35    29   ar
    38    12     7   ar
    39     3    14    1
@<TRIPOS>MOLECULE
*****
 35 39 0 0 0
SMALL
GASTEIGER

@<TRIPOS>ATOM
      1 O           5.7480   -1.0051   30.2953 O.2     1  UNL1       -0.2522
      2 C           6.1326   -2.2914   30.9644 C.2     1  UNL1        0.3082
      3 N           6.1247   -2.3898   32.4611 N.am    1  UNL1       -0.2656
      4 N           6.5250   -3.4793   30.1367 N.am    1  UNL1       -0.2576
      5 C           6.9095   -4.7656   30.8057 C.3     1  UNL1        0.1018
      6 C           7.3019   -5.9534   29.9781 C.3     1  UNL1        0.0671
      7 C           7.3097   -5.8550   28.4813 C.ar    1  UNL1        0.0586
      8 N           7.7021   -7.0428   27.6537 N.ar    1  UNL1       -0.2483
      9 C           7.7100   -6.9444   26.1569 C.ar    1  UNL1        0.0984
     10 C           7.3255   -5.6581   25.4879 C.ar    1  UNL1        0.0204
     11 C           6.9331   -4.4703   26.3155 C.ar    1  UNL1        0.0004
     12 C           6.9252   -4.5687   27.8122 C.ar    1  UNL1        0.0136
     13 C           6.5328   -3.3808   28.6400 C.3     1  UNL1        0.1231
     14 H           6.3771   -3.2341   32.9002 H       1  UNL1        0.1565
     15 C           6.1483   -2.0946   27.9709 C.ar    1  UNL1        0.0001
     16 C           7.1952   -1.0629   27.6712 C.ar    1  UNL1       -0.0000
     17 C           6.8107    0.2234   27.0021 C.ar    1  UNL1        0.0294
     18 C           5.3793    0.4780   26.6327 C.ar    1  UNL1        0.1401
     19 F           4.9948    1.7642   25.9637 F       1  UNL1       -0.2042
     20 C           4.3325   -0.5537   26.9325 C.ar    1  UNL1        0.0294
     21 C           4.7170   -1.8400   27.6015 C.ar    1  UNL1       -0.0000
     22 C           5.7323   -1.2020   33.2888 C.ar    1  UNL1        0.0906
     23 C           6.7828   -0.4097   34.0089 C.ar    1  UNL1        0.1199
     24 N           6.3904    0.7782   34.8366 N.ar    1  UNL1       -0.1911
     25 C           4.9475    1.1737   34.9441 C.ar    1  UNL1        0.3247
     26 N           3.8970    0.3814   34.2239 N.ar    1  UNL1       -0.1911
     27 C           4.2893   -0.8065   33.3963 C.ar    1  UNL1        0.1199
     28 O           4.5551    2.3615   35.7717 O.3     1  UNL1       -0.4223
     29 C           3.5379    2.2116   36.8639 C.ar    1  UNL1        0.1488
     30 C           3.5618    1.0017   37.7501 C.ar    1  UNL1        0.0399
     31 C           2.5446    0.8518   38.8423 C.ar    1  UNL1        0.0328
     32 C           1.5035    1.9118   39.0483 C.ar    1  UNL1        0.1403
     33 F           0.4863    1.7619   40.1404 F       1  UNL1       -0.2042
     34 C           1.4796    3.1218   38.1620 C.ar    1  UNL1        0.0328
     35 C           2.4968    3.2717   37.0698 C.ar    1  UNL1        0.0399
@<TRIPOS>BOND
     1     1     2    2
     2     2     3   am
     3     3    22    1
     4    22    23   ar
     5    23    24   ar
     6    24    25   ar
     7    25    28    1
     8    28    29    1
     9    29    30   ar
    10    30    31   ar
    11    31    32   ar
    12    32    33    1
    13    32    34   ar
    14    34    35   ar
    15    25    26   ar
    16    26    27   ar
    17     2     4   am
    18     4     5    1
    19     5     6    1
    20     6     7    1
    21     7     8   ar
    22     8     9   ar
    23     9    10   ar
    24    10    11   ar
    25    11    12   ar
    26    12    13    1
    27    13    15    1
    28    15    16   ar
    29    16    17   ar
    30    17    18   ar
    31    18    19    1
    32    18    20   ar
    33    20    21   ar
    34    27    22   ar
    35    13     4    1
    36    21    15   ar
    37    35    29   ar
    38    12     7   ar
    39     3    14    1
@<TRIPOS>MOLECULE
*****
 35 39 0 0 0
SMALL
GASTEIGER

@<TRIPOS>ATOM
      1 O           5.0523   -1.4253   30.6643 O.2     1  UNL1       -0.2522
      2 C           5.2300   -1.2235   32.1400 C.2     1  UNL1        0.3082
      3 N           6.1737   -2.1003   32.9085 N.am    1  UNL1       -0.2656
      4 N           4.4640   -0.1450   32.8471 N.am    1  UNL1       -0.2576
      5 C           4.6417    0.0568   34.3228 C.3     1  UNL1        0.1018
      6 C           3.8757    1.1353   35.0299 C.3     1  UNL1        0.0671
      7 C           2.9320    2.0121   34.2613 C.ar    1  UNL1        0.0586
      8 N           2.1660    3.0906   34.9685 N.ar    1  UNL1       -0.2483
      9 C           1.2223    3.9673   34.1999 C.ar    1  UNL1        0.0984
     10 C           1.0446    3.7655   32.7242 C.ar    1  UNL1        0.0204
     11 C           1.8105    2.6870   32.0171 C.ar    1  UNL1        0.0004
     12 C           2.7542    1.8103   32.7856 C.ar    1  UNL1        0.0136
     13 C           3.5203    0.7318   32.0785 C.3     1  UNL1        0.1231
     14 H           6.2904   -1.9678   33.8771 H       1  UNL1        0.1565
     15 C           3.3426    0.5300   30.6028 C.ar    1  UNL1        0.0001
     16 C           4.2188    1.2675   29.6341 C.ar    1  UNL1       -0.0000
     17 C           4.0411    1.0657   28.1584 C.ar    1  UNL1        0.0294
     18 C           2.9871    0.1264   27.6514 C.ar    1  UNL1        0.1401
     19 F           2.8094   -0.0754   26.1757 F       1  UNL1       -0.2042
     20 C           2.1109   -0.6111   28.6201 C.ar    1  UNL1        0.0294
     21 C           2.2887   -0.4093   30.0958 C.ar    1  UNL1       -0.0000
     22 C           6.9397   -3.1788   32.2014 C.ar    1  UNL1        0.0906
     23 C           6.3987   -4.5771   32.1572 C.ar    1  UNL1        0.1199
     24 N           7.1648   -5.6556   31.4500 N.ar    1  UNL1       -0.1911
     25 C           8.4717   -5.3358   30.7871 C.ar    1  UNL1        0.3247
     26 N           9.0127   -3.9374   30.8313 N.ar    1  UNL1       -0.1911
     27 C           8.2467   -2.8589   31.5384 C.ar    1  UNL1        0.1199
     28 O           9.2377   -6.4143   30.0800 O.3     1  UNL1       -0.4223
     29 C           8.8806   -6.7877   28.6718 C.ar    1  UNL1        0.1488
     30 C           9.4226   -8.0503   28.0702 C.ar    1  UNL1        0.0399
     31 C           9.0656   -8.4237   26.6620 C.ar    1  UNL1        0.0328
     32 C           8.1665   -7.5345   25.8553 C.ar    1  UNL1        0.1403
     33 F           7.8095   -7.9078   24.4471 F       1  UNL1       -0.2042
     34 C           7.6244   -6.2717   26.4568 C.ar    1  UNL1        0.0328
     35 C           7.9815   -5.8983   27.8650 C.ar    1  UNL1        0.0399
@<TRIPOS>BOND
     1     1     2    2
     2     2     3   am
     3     3    22    1
     4    22    23   ar
     5    23    24   ar
     6    24    25   ar
     7    25    28    1
     8    28    29    1
     9    29    30   ar
    10    30    31   ar
    11    31    32   ar
    12    32    33    1
    13    32    34   ar
    14    34    35   ar
    15    25    26   ar
    16    26    27   ar
    17     2     4   am
    18     4     5    1
    19     5     6    1
    20     6     7    1
    21     7     8   ar
    22     8     9   ar
    23     9    10   ar
    24    10    11   ar
    25    11    12   ar
    26    12    13    1
    27    13    15    1
    28    15    16   ar
    29    16    17   ar
    30    17    18   ar
    31    18    19    1
    32    18    20   ar
    33    20    21   ar
    34    27    22   ar
    35    13     4    1
    36    21    15   ar
    37    35    29   ar
    38    12     7   ar
    39     3    14    1
@<TRIPOS>MOLECULE
*****
 35 39 0 0 0
SMALL
GASTEIGER

@<TRIPOS>ATOM
      1 O           4.1494    0.1421   31.2921 O.2     1  UNL1       -0.2522
      2 C           5.2875   -0.8105   31.0746 C.2     1  UNL1        0.3082
      3 N           6.1718   -1.1970   32.2228 N.am    1  UNL1       -0.2656
      4 N           5.5411   -1.3766   29.7089 N.am    1  UNL1       -0.2576
      5 C           6.6792   -2.3293   29.4914 C.3     1  UNL1        0.1018
      6 C           6.9329   -2.8954   28.1257 C.3     1  UNL1        0.0671
      7 C           6.0485   -2.5089   26.9774 C.ar    1  UNL1        0.0586
      8 N           6.3022   -3.0750   25.6118 N.ar    1  UNL1       -0.2483
      9 C           5.4178   -2.6885   24.4636 C.ar    1  UNL1        0.0984
     10 C           4.2797   -1.7359   24.6810 C.ar    1  UNL1        0.0204
     11 C           4.0260   -1.1698   26.0467 C.ar    1  UNL1        0.0004
     12 C           4.9104   -1.5563   27.1949 C.ar    1  UNL1        0.0136
     13 C           4.6567   -0.9901   28.5606 C.3     1  UNL1        0.1231
     14 H           6.9188   -1.8222   32.0801 H       1  UNL1        0.1565
     15 C           3.5187   -0.0375   28.7781 C.ar    1  UNL1        0.0001
     16 C           3.7347    1.4382   28.6177 C.ar    1  UNL1       -0.0000
     17 C           2.5967    2.3908   28.8351 C.ar    1  UNL1        0.0294
     18 C           1.2425    1.8677   29.2130 C.ar    1  UNL1        0.1401
     19 F           0.1044    2.8204   29.4305 F       1  UNL1       -0.2042
     20 C           1.0265    0.3921   29.3734 C.ar    1  UNL1        0.0294
     21 C           2.1646   -0.5605   29.1560 C.ar    1  UNL1       -0.0000
     22 C           5.9181   -0.6309   33.5885 C.ar    1  UNL1        0.0906
     23 C           6.7895    0.4692   34.1181 C.ar    1  UNL1        0.1199
     24 N           6.5358    1.0354   35.4838 N.ar    1  UNL1       -0.1911
     25 C           5.4107    0.5014   36.3199 C.ar    1  UNL1        0.3247
     26 N           4.5393   -0.5987   35.7903 N.ar    1  UNL1       -0.1911
     27 C           4.7930   -1.1648   34.4246 C.ar    1  UNL1        0.1199
     28 O           5.1570    1.0675   37.6856 O.3     1  UNL1       -0.4223
     29 C           3.7717    1.4888   38.0774 C.ar    1  UNL1        0.1488
     30 C           3.2557    2.8380   37.6734 C.ar    1  UNL1        0.0399
     31 C           1.8704    3.2593   38.0652 C.ar    1  UNL1        0.0328
     32 C           1.0011    2.3313   38.8610 C.ar    1  UNL1        0.1403
     33 F          -0.3841    2.7525   39.2528 F       1  UNL1       -0.2042
     34 C           1.5172    0.9820   39.2650 C.ar    1  UNL1        0.0328
     35 C           2.9025    0.5607   38.8732 C.ar    1  UNL1        0.0399
@<TRIPOS>BOND
     1     1     2    2
     2     2     3   am
     3     3    22    1
     4    22    23   ar
     5    23    24   ar
     6    24    25   ar
     7    25    28    1
     8    28    29    1
     9    29    30   ar
    10    30    31   ar
    11    31    32   ar
    12    32    33    1
    13    32    34   ar
    14    34    35   ar
    15    25    26   ar
    16    26    27   ar
    17     2     4   am
    18     4     5    1
    19     5     6    1
    20     6     7    1
    21     7     8   ar
    22     8     9   ar
    23     9    10   ar
    24    10    11   ar
    25    11    12   ar
    26    12    13    1
    27    13    15    1
    28    15    16   ar
    29    16    17   ar
    30    17    18   ar
    31    18    19    1
    32    18    20   ar
    33    20    21   ar
    34    27    22   ar
    35    13     4    1
    36    21    15   ar
    37    35    29   ar
    38    12     7   ar
    39     3    14    1
@<TRIPOS>MOLECULE
*****
 35 39 0 0 0
SMALL
GASTEIGER

@<TRIPOS>ATOM
      1 O           5.1805   -0.7519   30.2085 O.2     1  UNL1       -0.2522
      2 C           4.1169    0.2813   30.4352 C.2     1  UNL1        0.3082
      3 N           3.3951    0.8836   29.2664 N.am    1  UNL1       -0.2656
      4 N           3.7752    0.7122   31.8308 N.am    1  UNL1       -0.2576
      5 C           2.7117    1.7455   32.0575 C.3     1  UNL1        0.1018
      6 C           2.3700    2.1764   33.4530 C.3     1  UNL1        0.0671
      7 C           3.0918    1.5741   34.6219 C.ar    1  UNL1        0.0586
      8 N           2.7500    2.0050   36.0174 N.ar    1  UNL1       -0.2483
      9 C           3.4718    1.4027   37.1862 C.ar    1  UNL1        0.0984
     10 C           4.5354    0.3695   36.9596 C.ar    1  UNL1        0.0204
     11 C           4.8771   -0.0614   35.5641 C.ar    1  UNL1        0.0004
     12 C           4.1553    0.5409   34.3952 C.ar    1  UNL1        0.0136
     13 C           4.4970    0.1099   32.9996 C.3     1  UNL1        0.1231
     14 H           2.6971    1.5617   29.4151 H       1  UNL1        0.1565
     15 C           5.5605   -0.9233   32.7730 C.ar    1  UNL1        0.0001
     16 C           6.9953   -0.5061   32.6403 C.ar    1  UNL1       -0.0000
     17 C           8.0588   -1.5394   32.4136 C.ar    1  UNL1        0.0294
     18 C           7.6876   -2.9897   32.3196 C.ar    1  UNL1        0.1401
     19 F           8.7511   -4.0229   32.0929 F       1  UNL1       -0.2042
     20 C           6.2529   -3.4068   32.4523 C.ar    1  UNL1        0.0294
     21 C           5.1894   -2.3735   32.6789 C.ar    1  UNL1       -0.0000
     22 C           3.7369    0.4527   27.8709 C.ar    1  UNL1        0.0906
     23 C           4.5127    1.3690   26.9717 C.ar    1  UNL1        0.1199
     24 N           4.8544    0.9380   25.5761 N.ar    1  UNL1       -0.1911
     25 C           4.4203   -0.4092   25.0798 C.ar    1  UNL1        0.3247
     26 N           3.6445   -1.3256   25.9789 N.ar    1  UNL1       -0.1911
     27 C           3.3028   -0.8947   27.3744 C.ar    1  UNL1        0.1199
     28 O           4.7621   -0.8402   23.6843 O.3     1  UNL1       -0.4223
     29 C           3.7454   -0.7103   22.5891 C.ar    1  UNL1        0.1488
     30 C           3.8367   -1.5843   21.3735 C.ar    1  UNL1        0.0399
     31 C           2.8200   -1.4544   20.2783 C.ar    1  UNL1        0.0328
     32 C           1.7121   -0.4505   20.3986 C.ar    1  UNL1        0.1403
     33 F           0.6954   -0.3206   19.3034 F       1  UNL1       -0.2042
     34 C           1.6207    0.4236   21.6142 C.ar    1  UNL1        0.0328
     35 C           2.6374    0.2937   22.7095 C.ar    1  UNL1        0.0399
@<TRIPOS>BOND
     1     1     2    2
     2     2     3   am
     3     3    22    1
     4    22    23   ar
     5    23    24   ar
     6    24    25   ar
     7    25    28    1
     8    28    29    1
     9    29    30   ar
    10    30    31   ar
    11    31    32   ar
    12    32    33    1
    13    32    34   ar
    14    34    35   ar
    15    25    26   ar
    16    26    27   ar
    17     2     4   am
    18     4     5    1
    19     5     6    1
    20     6     7    1
    21     7     8   ar
    22     8     9   ar
    23     9    10   ar
    24    10    11   ar
    25    11    12   ar
    26    12    13    1
    27    13    15    1
    28    15    16   ar
    29    16    17   ar
    30    17    18   ar
    31    18    19    1
    32    18    20   ar
    33    20    21   ar
    34    27    22   ar
    35    13     4    1
    36    21    15   ar
    37    35    29   ar
    38    12     7   ar
    39     3    14    1
