@<TRIPOS>MOLECULE
*****
 13 13 0 0 0
SMALL
GASTEIGER

@<TRIPOS>ATOM
      1 C         -11.7027  -18.2637   21.9364 C.ar    1  UNL1        0.0505
      2 C         -12.2119  -17.9241   23.3058 C.ar    1  UNL1        0.0178
      3 C         -11.7147  -18.6828   24.5004 C.ar    1  UNL1        0.0379
      4 C         -10.7082  -19.7811   24.3256 C.ar    1  UNL1        0.1338
      5 O         -10.2109  -20.5398   25.5202 O.3     1  UNL1       -0.5055
      6 C         -10.1989  -20.1207   22.9562 C.ar    1  UNL1        0.0379
      7 C         -10.6961  -19.3620   21.7616 C.ar    1  UNL1        0.0178
      8 H         -10.5290  -20.3277   26.3756 H       1  UNL1        0.2922
      9 C         -11.9122  -15.5830   19.0175 C.3     1  UNL1        0.0949
     10 C         -11.4149  -16.3417   20.2121 C.2     1  UNL1        0.2266
     11 O         -10.1326  -15.9372   20.8770 O.2     1  UNL1       -0.2748
     12 N         -12.1999  -17.5050   20.7418 N.am    1  UNL1       -0.2839
     13 H         -13.0415  -17.7705   20.3054 H       1  UNL1        0.1549
@<TRIPOS>BOND
     1     9    10    1
     2    10    11    2
     3    10    12   am
     4    12     1    1
     5     1     2   ar
     6     2     3   ar
     7     3     4   ar
     8     4     5    1
     9     4     6   ar
    10     6     7   ar
    11     7     1   ar
    12    12    13    1
    13     5     8    1
@<TRIPOS>MOLECULE
*****
 13 13 0 0 0
SMALL
GASTEIGER

@<TRIPOS>ATOM
      1 C         -11.7096  -18.2661   21.9412 C.ar    1  UNL1        0.0505
      2 C         -10.7086  -19.3689   21.7634 C.ar    1  UNL1        0.0178
      3 C         -10.2094  -20.1284   22.9567 C.ar    1  UNL1        0.0379
      4 C         -10.7113  -19.7851   24.3279 C.ar    1  UNL1        0.1338
      5 O         -10.2121  -20.5446   25.5212 O.3     1  UNL1       -0.5055
      6 C         -11.7123  -18.6823   24.5057 C.ar    1  UNL1        0.0379
      7 C         -12.2115  -17.9228   23.3124 C.ar    1  UNL1        0.0178
      8 H          -9.5868  -21.2335   25.4101 H       1  UNL1        0.2922
      9 C         -11.9231  -15.5844   19.0236 C.3     1  UNL1        0.0949
     10 C         -11.4239  -16.3439   20.2169 C.2     1  UNL1        0.2266
     11 O         -10.1398  -15.9407   20.8791 O.2     1  UNL1       -0.2748
     12 N         -12.2088  -17.5066   20.7479 N.am    1  UNL1       -0.2839
     13 H         -13.0515  -17.7713   20.3132 H       1  UNL1        0.1549
@<TRIPOS>BOND
     1     9    10    1
     2    10    11    2
     3    10    12   am
     4    12     1    1
     5     1     2   ar
     6     2     3   ar
     7     3     4   ar
     8     4     5    1
     9     4     6   ar
    10     6     7   ar
    11     7     1   ar
    12    12    13    1
    13     5     8    1
@<TRIPOS>MOLECULE
*****
 13 13 0 0 0
SMALL
GASTEIGER

@<TRIPOS>ATOM
      1 C           4.6044  -12.8696   28.0021 C.ar    1  UNL1        0.0505
      2 C           3.9590  -13.9637   27.2045 C.ar    1  UNL1        0.0178
      3 C           2.5708  -14.4199   27.5430 C.ar    1  UNL1        0.0379
      4 C           1.8278  -13.7819   28.6792 C.ar    1  UNL1        0.1338
      5 O           0.4396  -14.2381   29.0177 O.3     1  UNL1       -0.5055
      6 C           2.4732  -12.6877   29.4768 C.ar    1  UNL1        0.0379
      7 C           3.8614  -12.2316   29.1383 C.ar    1  UNL1        0.0178
      8 H           0.0364  -14.9216   28.5194 H       1  UNL1        0.2922
      9 C           8.5447  -12.4206   28.1501 C.3     1  UNL1        0.0949
     10 C           7.1565  -12.8768   28.4886 C.2     1  UNL1        0.2266
     11 O           6.9321  -13.7965   29.6522 O.2     1  UNL1       -0.2748
     12 N           5.9926  -12.4134   27.6636 N.am    1  UNL1       -0.2839
     13 H           6.1399  -11.8098   26.8999 H       1  UNL1        0.1549
@<TRIPOS>BOND
     1     9    10    1
     2    10    11    2
     3    10    12   am
     4    12     1    1
     5     1     2   ar
     6     2     3   ar
     7     3     4   ar
     8     4     5    1
     9     4     6   ar
    10     6     7   ar
    11     7     1   ar
    12    12    13    1
    13     5     8    1
@<TRIPOS>MOLECULE
*****
 13 13 0 0 0
SMALL
GASTEIGER

@<TRIPOS>ATOM
      1 C          -5.2310  -19.7548   21.6549 C.ar    1  UNL1        0.0505
      2 C          -4.2418  -19.1416   22.6012 C.ar    1  UNL1        0.0178
      3 C          -2.8406  -18.8624   22.1443 C.ar    1  UNL1        0.0379
      4 C          -2.4287  -19.1963   20.7412 C.ar    1  UNL1        0.1338
      5 O          -1.0275  -18.9170   20.2843 O.3     1  UNL1       -0.5055
      6 C          -3.4179  -19.8094   19.7949 C.ar    1  UNL1        0.0379
      7 C          -4.8191  -20.0886   20.2518 C.ar    1  UNL1        0.0178
      8 H          -0.4095  -18.5340   20.8754 H       1  UNL1        0.2922
      9 C          -9.1212  -19.3146   22.3053 C.3     1  UNL1        0.0949
     10 C          -7.7200  -19.0354   21.8484 C.2     1  UNL1        0.2266
     11 O          -7.4066  -17.7574   21.1281 O.2     1  UNL1       -0.2748
     12 N          -6.6322  -20.0340   22.1118 N.am    1  UNL1       -0.2839
     13 H          -6.8379  -20.8727   22.5845 H       1  UNL1        0.1549
@<TRIPOS>BOND
     1     9    10    1
     2    10    11    2
     3    10    12   am
     4    12     1    1
     5     1     2   ar
     6     2     3   ar
     7     3     4   ar
     8     4     5    1
     9     4     6   ar
    10     6     7   ar
    11     7     1   ar
    12    12    13    1
    13     5     8    1
@<TRIPOS>MOLECULE
*****
 13 13 0 0 0
SMALL
GASTEIGER

@<TRIPOS>ATOM
      1 C          -3.8628  -18.7762   21.6631 C.ar    1  UNL1        0.0505
      2 C          -3.2992  -19.2640   20.3615 C.ar    1  UNL1        0.0178
      3 C          -2.1020  -18.5875   19.7621 C.ar    1  UNL1        0.0379
      4 C          -1.4686  -17.4233   20.4643 C.ar    1  UNL1        0.1338
      5 O          -0.2715  -16.7468   19.8649 O.3     1  UNL1       -0.5055
      6 C          -2.0323  -16.9354   21.7659 C.ar    1  UNL1        0.0379
      7 C          -3.2294  -17.6119   22.3653 C.ar    1  UNL1        0.0178
      8 H           0.0807  -17.0515   19.0518 H       1  UNL1        0.2922
      9 C          -7.6299  -19.8259   22.3391 C.3     1  UNL1        0.0949
     10 C          -6.4328  -19.1495   21.7397 C.2     1  UNL1        0.2266
     11 O          -6.6086  -18.1698   20.6174 O.2     1  UNL1       -0.2748
     12 N          -5.0600  -19.4526   22.2625 N.am    1  UNL1       -0.2839
     13 H          -4.9446  -20.0956   22.9991 H       1  UNL1        0.1549
@<TRIPOS>BOND
     1     9    10    1
     2    10    11    2
     3    10    12   am
     4    12     1    1
     5     1     2   ar
     6     2     3   ar
     7     3     4   ar
     8     4     5    1
     9     4     6   ar
    10     6     7   ar
    11     7     1   ar
    12    12    13    1
    13     5     8    1
@<TRIPOS>MOLECULE
*****
 13 13 0 0 0
SMALL
GASTEIGER

@<TRIPOS>ATOM
      1 C           5.2474  -11.5635   18.1705 C.ar    1  UNL1        0.0505
      2 C           5.6772  -12.9129   18.6646 C.ar    1  UNL1        0.0178
      3 C           5.0253  -14.1516   18.1254 C.ar    1  UNL1        0.0379
      4 C           3.9437  -14.0409   17.0921 C.ar    1  UNL1        0.1338
      5 O           3.2919  -15.2796   16.5529 O.3     1  UNL1       -0.5055
      6 C           3.5139  -12.6914   16.5980 C.ar    1  UNL1        0.0379
      7 C           4.1657  -11.4527   17.1372 C.ar    1  UNL1        0.0178
      8 H           3.5604  -16.1226   16.8616 H       1  UNL1        0.2922
      9 C           8.0377   -9.0449   19.4437 C.3     1  UNL1        0.0949
     10 C           7.3859  -10.2837   18.9045 C.2     1  UNL1        0.2266
     11 O           8.2208  -11.4813   18.5602 O.2     1  UNL1       -0.2748
     12 N           5.8992  -10.3247   18.7097 N.am    1  UNL1       -0.2839
     13 H           5.3512   -9.5387   18.9357 H       1  UNL1        0.1549
@<TRIPOS>BOND
     1     9    10    1
     2    10    11    2
     3    10    12   am
     4    12     1    1
     5     1     2   ar
     6     2     3   ar
     7     3     4   ar
     8     4     5    1
     9     4     6   ar
    10     6     7   ar
    11     7     1   ar
    12    12    13    1
    13     5     8    1
@<TRIPOS>MOLECULE
*****
 13 13 0 0 0
SMALL
GASTEIGER

@<TRIPOS>ATOM
      1 C           2.6273  -13.4800   28.0127 C.ar    1  UNL1        0.0505
      2 C           3.5678  -13.6910   26.8634 C.ar    1  UNL1        0.0178
      3 C           4.9265  -13.0557   26.8798 C.ar    1  UNL1        0.0379
      4 C           5.3448  -12.2096   28.0456 C.ar    1  UNL1        0.1338
      5 O           6.7036  -11.5744   28.0620 O.3     1  UNL1       -0.5055
      6 C           4.4043  -11.9986   29.1949 C.ar    1  UNL1        0.0379
      7 C           3.0456  -12.6338   29.1784 C.ar    1  UNL1        0.0178
      8 H           7.2911  -11.7062   27.3440 H       1  UNL1        0.2922
      9 C          -0.2452  -16.1992   28.3361 C.3     1  UNL1        0.0949
     10 C           1.1135  -15.5640   28.3525 C.2     1  UNL1        0.2266
     11 O           2.3174  -16.3776   28.7253 O.2     1  UNL1       -0.2748
     12 N           1.2685  -14.1152   27.9963 N.am    1  UNL1       -0.2839
     13 H           0.4784  -13.5812   27.7516 H       1  UNL1        0.1549
@<TRIPOS>BOND
     1     9    10    1
     2    10    11    2
     3    10    12   am
     4    12     1    1
     5     1     2   ar
     6     2     3   ar
     7     3     4   ar
     8     4     5    1
     9     4     6   ar
    10     6     7   ar
    11     7     1   ar
    12    12    13    1
    13     5     8    1
@<TRIPOS>MOLECULE
*****
 13 13 0 0 0
SMALL
GASTEIGER

@<TRIPOS>ATOM
      1 C          -9.3607  -18.1643   21.3926 C.ar    1  UNL1        0.0505
      2 C         -10.1752  -18.7810   20.2943 C.ar    1  UNL1        0.0178
      3 C         -11.2395  -17.9772   19.6080 C.ar    1  UNL1        0.0379
      4 C         -11.4894  -16.5567   20.0199 C.ar    1  UNL1        0.1338
      5 O         -12.5537  -15.7529   19.3335 O.3     1  UNL1       -0.5055
      6 C         -10.6749  -15.9400   21.1182 C.ar    1  UNL1        0.0379
      7 C          -9.6106  -16.7438   21.8045 C.ar    1  UNL1        0.0178
      8 H         -13.0625  -16.1382   18.6475 H       1  UNL1        0.2922
      9 C          -5.8733  -19.9032   22.1437 C.3     1  UNL1        0.0949
     10 C          -6.9376  -19.0994   21.4573 C.2     1  UNL1        0.2266
     11 O          -6.6431  -18.4268   20.1492 O.2     1  UNL1       -0.2748
     12 N          -8.2964  -18.9681   22.0790 N.am    1  UNL1       -0.2839
     13 H          -8.4896  -19.4096   22.9375 H       1  UNL1        0.1549
@<TRIPOS>BOND
     1     9    10    1
     2    10    11    2
     3    10    12   am
     4    12     1    1
     5     1     2   ar
     6     2     3   ar
     7     3     4   ar
     8     4     5    1
     9     4     6   ar
    10     6     7   ar
    11     7     1   ar
    12    12    13    1
    13     5     8    1
@<TRIPOS>MOLECULE
*****
 13 13 0 0 0
SMALL
GASTEIGER

@<TRIPOS>ATOM
      1 C          -8.8053  -16.9343   23.3337 C.ar    1  UNL1        0.0505
      2 C          -7.3525  -16.8960   22.9622 C.ar    1  UNL1        0.0178
      3 C          -6.3907  -16.0851   23.7790 C.ar    1  UNL1        0.0379
      4 C          -6.8815  -15.3124   24.9673 C.ar    1  UNL1        0.1338
      5 O          -5.9196  -14.5015   25.7841 O.3     1  UNL1       -0.5055
      6 C          -8.3343  -15.3507   25.3388 C.ar    1  UNL1        0.0379
      7 C          -9.2961  -16.1616   24.5220 C.ar    1  UNL1        0.0178
      8 H          -5.0121  -14.4776   25.5520 H       1  UNL1        0.2922
      9 C         -11.3401  -17.9711   20.4615 C.3     1  UNL1        0.0949
     10 C         -10.3782  -17.1602   21.2783 C.2     1  UNL1        0.2266
     11 O         -10.0274  -15.7641   20.8564 O.2     1  UNL1       -0.2748
     12 N          -9.7672  -17.7452   22.5169 N.am    1  UNL1       -0.2839
     13 H          -9.9974  -18.6615   22.7938 H       1  UNL1        0.1549
@<TRIPOS>BOND
     1     9    10    1
     2    10    11    2
     3    10    12   am
     4    12     1    1
     5     1     2   ar
     6     2     3   ar
     7     3     4   ar
     8     4     5    1
     9     4     6   ar
    10     6     7   ar
    11     7     1   ar
    12    12    13    1
    13     5     8    1
