@<TRIPOS>MOLECULE
*****
 24 27 0 0 0
SMALL
GASTEIGER

@<TRIPOS>ATOM
      1 C          -8.5882  -19.3642   21.6992 C.ar    1  UNL1        0.0835
      2 C          -7.6813  -20.2521   22.4986 C.ar    1  UNL1        0.0190
      3 C          -6.3502  -20.6612   21.9413 C.ar    1  UNL1        0.0008
      4 C          -5.9259  -20.1825   20.5846 C.ar    1  UNL1        0.0213
      5 C          -6.8328  -19.2945   19.7851 C.ar    1  UNL1        0.0965
      6 N          -8.1639  -18.8854   20.3424 N.ar    1  UNL1       -0.2440
      7 F         -10.8167  -18.5911   19.8455 F       1  UNL1       -0.2041
      8 C         -11.0336  -18.5685   21.3296 C.ar    1  UNL1        0.1424
      9 C         -12.3649  -18.1593   21.8868 C.ar    1  UNL1        0.0411
     10 C         -12.5818  -18.1367   23.3708 C.ar    1  UNL1        0.0599
     11 CL        -13.9130  -17.7276   23.9281 Cl      1  UNL1       -0.0822
     12 C         -11.4676  -18.5233   24.2976 C.ar    1  UNL1        0.0116
     13 C         -10.1364  -18.9324   23.7405 C.ar    1  UNL1        0.0046
     14 C          -9.9194  -18.9551   22.2564 C.ar    1  UNL1        0.0452
     15 C          -4.5946  -20.5916   20.0273 C.3     1  UNL1        0.1571
     16 N          -3.5393  -19.5572   19.7698 N.ar    1  UNL1       -0.2272
     17 N          -2.7052  -19.4384   18.5288 N.ar    1  UNL1       -0.0635
     18 N          -1.7833  -18.2677   18.7003 N.ar    1  UNL1       -0.1288
     19 C          -2.0476  -17.6629   20.0472 C.ar    1  UNL1        0.1217
     20 C          -1.4403  -16.4894   20.7572 C.ar    1  UNL1        0.0225
     21 C          -1.9183  -16.1129   22.1282 C.ar    1  UNL1        0.0017
     22 C          -3.0036  -16.9099   22.7893 C.ar    1  UNL1        0.0016
     23 C          -3.6109  -18.0833   22.0793 C.ar    1  UNL1        0.0204
     24 C          -3.1329  -18.4598   20.7083 C.ar    1  UNL1        0.0992
@<TRIPOS>BOND
     1     7     8    1
     2     8     9   ar
     3     9    10   ar
     4    10    11    1
     5    10    12   ar
     6    12    13   ar
     7    13    14   ar
     8    14     1    1
     9     1     2   ar
    10     2     3   ar
    11     3     4   ar
    12     4    15    1
    13    15    16    1
    14    16    17   ar
    15    17    18   ar
    16    18    19   ar
    17    19    20   ar
    18    20    21   ar
    19    21    22   ar
    20    22    23   ar
    21    23    24   ar
    22     4     5   ar
    23     5     6   ar
    24    14     8   ar
    25     6     1   ar
    26    24    16   ar
    27    24    19   ar
@<TRIPOS>MOLECULE
*****
 24 27 0 0 0
SMALL
GASTEIGER

@<TRIPOS>ATOM
      1 C          -5.3928  -18.9891   21.7366 C.ar    1  UNL1        0.0835
      2 C          -5.8613  -20.4136   21.7032 C.ar    1  UNL1        0.0190
      3 C          -7.2335  -20.7635   22.1978 C.ar    1  UNL1        0.0008
      4 C          -8.1370  -19.6890   22.7259 C.ar    1  UNL1        0.0213
      5 C          -7.6685  -18.2644   22.7593 C.ar    1  UNL1        0.0965
      6 N          -6.2964  -17.9145   22.2646 N.ar    1  UNL1       -0.2440
      7 F          -3.3829  -17.7889   23.6127 F       1  UNL1       -0.2041
      8 C          -3.0157  -18.0390   22.1800 C.ar    1  UNL1        0.1424
      9 C          -1.6434  -17.6889   21.6854 C.ar    1  UNL1        0.0411
     10 C          -1.2763  -17.9390   20.2527 C.ar    1  UNL1        0.0599
     11 CL          0.0959  -17.5890   19.7580 Cl      1  UNL1       -0.0822
     12 C          -2.2812  -18.5391   19.3146 C.ar    1  UNL1        0.0116
     13 C          -3.6533  -18.8891   19.8092 C.ar    1  UNL1        0.0046
     14 C          -4.0206  -18.6390   21.2419 C.ar    1  UNL1        0.0452
     15 C          -9.5093  -20.0390   23.2206 C.3     1  UNL1        0.1571
     16 N         -10.6029  -19.0129   23.1872 N.ar    1  UNL1       -0.2272
     17 N         -11.4919  -18.6343   24.3345 N.ar    1  UNL1       -0.0635
     18 N         -12.4380  -17.5726   23.8570 N.ar    1  UNL1       -0.1288
     19 C         -12.1336  -17.2952   22.4146 C.ar    1  UNL1        0.1217
     20 C         -12.7426  -16.3470   21.4247 C.ar    1  UNL1        0.0225
     21 C         -12.2176  -16.2889   20.0209 C.ar    1  UNL1        0.0017
     22 C         -11.0834  -17.1791   19.6069 C.ar    1  UNL1        0.0016
     23 C         -10.4744  -18.1273   20.5968 C.ar    1  UNL1        0.0204
     24 C         -10.9995  -18.1853   22.0007 C.ar    1  UNL1        0.0992
@<TRIPOS>BOND
     1     7     8    1
     2     8     9   ar
     3     9    10   ar
     4    10    11    1
     5    10    12   ar
     6    12    13   ar
     7    13    14   ar
     8    14     1    1
     9     1     2   ar
    10     2     3   ar
    11     3     4   ar
    12     4    15    1
    13    15    16    1
    14    16    17   ar
    15    17    18   ar
    16    18    19   ar
    17    19    20   ar
    18    20    21   ar
    19    21    22   ar
    20    22    23   ar
    21    23    24   ar
    22     4     5   ar
    23     5     6   ar
    24    14     8   ar
    25     6     1   ar
    26    24    16   ar
    27    24    19   ar
@<TRIPOS>MOLECULE
*****
 24 27 0 0 0
SMALL
GASTEIGER

@<TRIPOS>ATOM
      1 C          -5.5513  -19.1149   20.1483 C.ar    1  UNL1        0.0835
      2 C          -6.0462  -20.3494   19.4549 C.ar    1  UNL1        0.0190
      3 C          -7.5170  -20.6378   19.3958 C.ar    1  UNL1        0.0008
      4 C          -8.4929  -19.6916   20.0301 C.ar    1  UNL1        0.0213
      5 C          -7.9980  -18.4570   20.7235 C.ar    1  UNL1        0.0965
      6 N          -6.5272  -18.1687   20.7826 N.ar    1  UNL1       -0.2440
      7 F          -4.0409  -19.5411   22.7050 F       1  UNL1       -0.2041
      8 C          -3.3253  -19.0396   21.4858 C.ar    1  UNL1        0.1424
      9 C          -1.8544  -18.7512   21.5451 C.ar    1  UNL1        0.0411
     10 C          -1.1388  -18.2496   20.3259 C.ar    1  UNL1        0.0599
     11 CL          0.3320  -17.9612   20.3851 Cl      1  UNL1       -0.0822
     12 C          -1.8941  -18.0365   19.0476 C.ar    1  UNL1        0.0116
     13 C          -3.3649  -18.3249   18.9883 C.ar    1  UNL1        0.0046
     14 C          -4.0805  -18.8264   20.2075 C.ar    1  UNL1        0.0452
     15 C          -9.9639  -19.9800   19.9709 C.3     1  UNL1        0.1571
     16 N         -10.9471  -18.9726   20.4889 N.ar    1  UNL1       -0.2272
     17 N         -11.6022  -17.8871   19.6873 N.ar    1  UNL1       -0.0635
     18 N         -12.5078  -17.1174   20.6024 N.ar    1  UNL1       -0.1288
     19 C         -12.4124  -17.7272   21.9696 C.ar    1  UNL1        0.1217
     20 C         -13.0792  -17.3865   23.2693 C.ar    1  UNL1        0.0225
     21 C         -12.7814  -18.1924   24.4988 C.ar    1  UNL1        0.0017
     22 C         -11.8168  -19.3390   24.4287 C.ar    1  UNL1        0.0016
     23 C         -11.1500  -19.6796   23.1290 C.ar    1  UNL1        0.0204
     24 C         -11.4478  -18.8737   21.8994 C.ar    1  UNL1        0.0992
@<TRIPOS>BOND
     1     7     8    1
     2     8     9   ar
     3     9    10   ar
     4    10    11    1
     5    10    12   ar
     6    12    13   ar
     7    13    14   ar
     8    14     1    1
     9     1     2   ar
    10     2     3   ar
    11     3     4   ar
    12     4    15    1
    13    15    16    1
    14    16    17   ar
    15    17    18   ar
    16    18    19   ar
    17    19    20   ar
    18    20    21   ar
    19    21    22   ar
    20    22    23   ar
    21    23    24   ar
    22     4     5   ar
    23     5     6   ar
    24    14     8   ar
    25     6     1   ar
    26    24    16   ar
    27    24    19   ar
@<TRIPOS>MOLECULE
*****
 24 27 0 0 0
SMALL
GASTEIGER

@<TRIPOS>ATOM
      1 C          -8.9798  -17.4677   23.5914 C.ar    1  UNL1        0.0835
      2 C          -8.3194  -16.3388   24.3260 C.ar    1  UNL1        0.0190
      3 C          -6.8361  -16.1418   24.2211 C.ar    1  UNL1        0.0008
      4 C          -6.0132  -17.0736   23.3817 C.ar    1  UNL1        0.0213
      5 C          -6.6736  -18.2024   22.6471 C.ar    1  UNL1        0.0965
      6 N          -8.1569  -18.3994   22.7520 N.ar    1  UNL1       -0.2440
      7 F         -10.0891  -19.5480   25.4466 F       1  UNL1       -0.2041
      8 C         -11.0177  -18.7049   24.6238 C.ar    1  UNL1        0.1424
      9 C         -12.5011  -18.9021   24.7287 C.ar    1  UNL1        0.0411
     10 C         -13.4297  -18.0590   23.9060 C.ar    1  UNL1        0.0599
     11 CL        -14.9130  -18.2561   24.0108 Cl      1  UNL1       -0.0822
     12 C         -12.8750  -17.0189   22.9784 C.ar    1  UNL1        0.0116
     13 C         -11.3918  -16.8217   22.8735 C.ar    1  UNL1        0.0046
     14 C         -10.4631  -17.6648   23.6962 C.ar    1  UNL1        0.0452
     15 C          -4.5299  -16.8765   23.2768 C.3     1  UNL1        0.1571
     16 N          -3.6839  -17.9034   22.5841 N.ar    1  UNL1       -0.2272
     17 N          -3.8766  -19.3898   22.6431 N.ar    1  UNL1       -0.0635
     18 N          -2.8086  -20.0292   21.8062 N.ar    1  UNL1       -0.1288
     19 C          -1.9559  -18.9380   21.2299 C.ar    1  UNL1        0.1217
     20 C          -0.7567  -18.9710   20.3295 C.ar    1  UNL1        0.0225
     21 C          -0.0985  -17.6902   19.9098 C.ar    1  UNL1        0.0017
     22 C          -0.6395  -16.3763   20.3906 C.ar    1  UNL1        0.0016
     23 C          -1.8387  -16.3433   21.2910 C.ar    1  UNL1        0.0204
     24 C          -2.4969  -17.6242   21.7107 C.ar    1  UNL1        0.0992
@<TRIPOS>BOND
     1     7     8    1
     2     8     9   ar
     3     9    10   ar
     4    10    11    1
     5    10    12   ar
     6    12    13   ar
     7    13    14   ar
     8    14     1    1
     9     1     2   ar
    10     2     3   ar
    11     3     4   ar
    12     4    15    1
    13    15    16    1
    14    16    17   ar
    15    17    18   ar
    16    18    19   ar
    17    19    20   ar
    18    20    21   ar
    19    21    22   ar
    20    22    23   ar
    21    23    24   ar
    22     4     5   ar
    23     5     6   ar
    24    14     8   ar
    25     6     1   ar
    26    24    16   ar
    27    24    19   ar
@<TRIPOS>MOLECULE
*****
 24 27 0 0 0
SMALL
GASTEIGER

@<TRIPOS>ATOM
      1 C          -4.7519  -18.8726   20.7883 C.ar    1  UNL1        0.0835
      2 C          -5.1105  -19.7253   21.9691 C.ar    1  UNL1        0.0190
      3 C          -6.5250  -20.1873   22.1585 C.ar    1  UNL1        0.0008
      4 C          -7.5807  -19.7967   21.1672 C.ar    1  UNL1        0.0213
      5 C          -7.2221  -18.9440   19.9864 C.ar    1  UNL1        0.0965
      6 N          -5.8077  -18.4820   19.7970 N.ar    1  UNL1       -0.2440
      7 F          -3.4636  -17.1051   22.8416 F       1  UNL1       -0.2041
      8 C          -2.6933  -17.5268   21.6254 C.ar    1  UNL1        0.1424
      9 C          -1.2789  -17.0647   21.4360 C.ar    1  UNL1        0.0411
     10 C          -0.5086  -17.4864   20.2199 C.ar    1  UNL1        0.0599
     11 CL          0.9058  -17.0243   20.0304 Cl      1  UNL1       -0.0822
     12 C          -1.1528  -18.3701   19.1933 C.ar    1  UNL1        0.0116
     13 C          -2.5672  -18.8322   19.3827 C.ar    1  UNL1        0.0046
     14 C          -3.3375  -18.4106   20.5988 C.ar    1  UNL1        0.0452
     15 C          -8.9952  -20.2588   21.3567 C.3     1  UNL1        0.1571
     16 N          -9.7224  -19.9452   22.6306 N.ar    1  UNL1       -0.2272
     17 N          -9.3019  -20.3572   24.0102 N.ar    1  UNL1       -0.0635
     18 N         -10.3174  -19.8311   24.9808 N.ar    1  UNL1       -0.1288
     19 C         -11.3655  -19.0939   24.2010 C.ar    1  UNL1        0.1217
     20 C         -12.6072  -18.3676   24.6260 C.ar    1  UNL1        0.0225
     21 C         -13.4811  -17.7117   23.5984 C.ar    1  UNL1        0.0017
     22 C         -13.1134  -17.7822   22.1458 C.ar    1  UNL1        0.0016
     23 C         -11.8717  -18.5086   21.7209 C.ar    1  UNL1        0.0204
     24 C         -10.9978  -19.1644   22.7485 C.ar    1  UNL1        0.0992
@<TRIPOS>BOND
     1     7     8    1
     2     8     9   ar
     3     9    10   ar
     4    10    11    1
     5    10    12   ar
     6    12    13   ar
     7    13    14   ar
     8    14     1    1
     9     1     2   ar
    10     2     3   ar
    11     3     4   ar
    12     4    15    1
    13    15    16    1
    14    16    17   ar
    15    17    18   ar
    16    18    19   ar
    17    19    20   ar
    18    20    21   ar
    19    21    22   ar
    20    22    23   ar
    21    23    24   ar
    22     4     5   ar
    23     5     6   ar
    24    14     8   ar
    25     6     1   ar
    26    24    16   ar
    27    24    19   ar
@<TRIPOS>MOLECULE
*****
 24 27 0 0 0
SMALL
GASTEIGER

@<TRIPOS>ATOM
      1 C         -15.5685   -7.5063   18.3974 C.ar    1  UNL1        0.0835
      2 C         -14.1830   -8.0681   18.2771 C.ar    1  UNL1        0.0190
      3 C         -13.0016   -7.2481   18.7034 C.ar    1  UNL1        0.0008
      4 C         -13.2057   -5.8662   19.2500 C.ar    1  UNL1        0.0213
      5 C         -14.5913   -5.3044   19.3703 C.ar    1  UNL1        0.0965
      6 N         -15.7727   -6.1244   18.9440 N.ar    1  UNL1       -0.2440
      7 F         -16.4782   -9.8155   20.0826 F       1  UNL1       -0.2041
      8 C         -17.2048   -9.4809   18.8137 C.ar    1  UNL1        0.1424
      9 C         -18.3863  -10.3011   18.3875 C.ar    1  UNL1        0.0411
     10 C         -19.1129   -9.9665   17.1187 C.ar    1  UNL1        0.0599
     11 CL        -20.2944  -10.7865   16.6924 Cl      1  UNL1       -0.0822
     12 C         -18.6581   -8.8119   16.2760 C.ar    1  UNL1        0.0116
     13 C         -17.4767   -7.9918   16.7022 C.ar    1  UNL1        0.0046
     14 C         -16.7500   -8.3263   17.9711 C.ar    1  UNL1        0.0452
     15 C         -12.0242   -5.0461   19.6763 C.3     1  UNL1        0.1571
     16 N         -11.2310   -4.2860   18.6549 N.ar    1  UNL1       -0.2272
     17 N         -10.1327   -4.8431   17.7985 N.ar    1  UNL1       -0.0635
     18 N          -9.6199   -3.7368   16.9250 N.ar    1  UNL1       -0.1288
     19 C         -10.4012   -2.4961   17.2415 C.ar    1  UNL1        0.1217
     20 C         -10.3346   -1.1011   16.6942 C.ar    1  UNL1        0.0225
     21 C         -11.2637   -0.0455   17.2162 C.ar    1  UNL1        0.0017
     22 C         -12.2595   -0.3850   18.2854 C.ar    1  UNL1        0.0016
     23 C         -12.3261   -1.7800   18.8326 C.ar    1  UNL1        0.0204
     24 C         -11.3970   -2.8355   18.3107 C.ar    1  UNL1        0.0992
@<TRIPOS>BOND
     1     7     8    1
     2     8     9   ar
     3     9    10   ar
     4    10    11    1
     5    10    12   ar
     6    12    13   ar
     7    13    14   ar
     8    14     1    1
     9     1     2   ar
    10     2     3   ar
    11     3     4   ar
    12     4    15    1
    13    15    16    1
    14    16    17   ar
    15    17    18   ar
    16    18    19   ar
    17    19    20   ar
    18    20    21   ar
    19    21    22   ar
    20    22    23   ar
    21    23    24   ar
    22     4     5   ar
    23     5     6   ar
    24    14     8   ar
    25     6     1   ar
    26    24    16   ar
    27    24    19   ar
@<TRIPOS>MOLECULE
*****
 24 27 0 0 0
SMALL
GASTEIGER

@<TRIPOS>ATOM
      1 C         -13.2524   -3.2032   18.8722 C.ar    1  UNL1        0.0835
      2 C         -14.0531   -2.8936   20.1023 C.ar    1  UNL1        0.0190
      3 C         -15.0503   -1.7732   20.0856 C.ar    1  UNL1        0.0008
      4 C         -15.2468   -0.9624   18.8390 C.ar    1  UNL1        0.0213
      5 C         -14.4461   -1.2721   17.6090 C.ar    1  UNL1        0.0965
      6 N         -13.4490   -2.3924   17.6256 N.ar    1  UNL1       -0.2440
      7 F         -10.3151   -2.5980   18.7985 F       1  UNL1       -0.2041
      8 C         -10.7866   -4.0210   18.8519 C.ar    1  UNL1        0.1424
      9 C          -9.7892   -5.1414   18.8684 C.ar    1  UNL1        0.0411
     10 C         -10.2607   -6.5644   18.9218 C.ar    1  UNL1        0.0599
     11 CL         -9.2635   -7.6848   18.9383 Cl      1  UNL1       -0.0822
     12 C         -11.7294   -6.8669   18.9586 C.ar    1  UNL1        0.0116
     13 C         -12.7267   -5.7466   18.9421 C.ar    1  UNL1        0.0046
     14 C         -12.2552   -4.3236   18.8887 C.ar    1  UNL1        0.0452
     15 C         -16.2441    0.1581   18.8225 C.3     1  UNL1        0.1571
     16 N         -15.8730    1.5007   19.3790 N.ar    1  UNL1       -0.2272
     17 N         -14.9060    2.4715   18.7686 N.ar    1  UNL1       -0.0635
     18 N         -14.8392    3.6789   19.6561 N.ar    1  UNL1       -0.1288
     19 C         -15.7647    3.4544   20.8149 C.ar    1  UNL1        0.1217
     20 C         -16.1083    4.3019   22.0039 C.ar    1  UNL1        0.0225
     21 C         -17.0908    3.8031   23.0216 C.ar    1  UNL1        0.0017
     22 C         -17.7297    2.4568   22.8504 C.ar    1  UNL1        0.0016
     23 C         -17.3862    1.6093   21.6614 C.ar    1  UNL1        0.0204
     24 C         -16.4037    2.1081   20.6437 C.ar    1  UNL1        0.0992
@<TRIPOS>BOND
     1     7     8    1
     2     8     9   ar
     3     9    10   ar
     4    10    11    1
     5    10    12   ar
     6    12    13   ar
     7    13    14   ar
     8    14     1    1
     9     1     2   ar
    10     2     3   ar
    11     3     4   ar
    12     4    15    1
    13    15    16    1
    14    16    17   ar
    15    17    18   ar
    16    18    19   ar
    17    19    20   ar
    18    20    21   ar
    19    21    22   ar
    20    22    23   ar
    21    23    24   ar
    22     4     5   ar
    23     5     6   ar
    24    14     8   ar
    25     6     1   ar
    26    24    16   ar
    27    24    19   ar
@<TRIPOS>MOLECULE
*****
 24 27 0 0 0
SMALL
GASTEIGER

@<TRIPOS>ATOM
      1 C          -4.7139  -18.8964   21.5125 C.ar    1  UNL1        0.0835
      2 C          -5.6046  -17.9017   22.1961 C.ar    1  UNL1        0.0190
      3 C          -6.9884  -18.2990   22.6169 C.ar    1  UNL1        0.0008
      4 C          -7.4816  -19.6910   22.3542 C.ar    1  UNL1        0.0213
      5 C          -6.5909  -20.6858   21.6706 C.ar    1  UNL1        0.0965
      6 N          -5.2071  -20.2884   21.2498 N.ar    1  UNL1       -0.2440
      7 F          -2.7466  -17.9205   23.5564 F       1  UNL1       -0.2041
      8 C          -2.3464  -18.0112   22.1136 C.ar    1  UNL1        0.1424
      9 C          -0.9625  -17.6139   21.6928 C.ar    1  UNL1        0.0411
     10 C          -0.5623  -17.7046   20.2500 C.ar    1  UNL1        0.0599
     11 CL          0.8215  -17.3073   19.8292 Cl      1  UNL1       -0.0822
     12 C          -1.5459  -18.1925   19.2281 C.ar    1  UNL1        0.0116
     13 C          -2.9298  -18.5898   19.6489 C.ar    1  UNL1        0.0046
     14 C          -3.3301  -18.4991   21.0917 C.ar    1  UNL1        0.0452
     15 C          -8.8655  -20.0883   22.7751 C.3     1  UNL1        0.1571
     16 N         -10.0577  -19.5224   22.0621 N.ar    1  UNL1       -0.2272
     17 N         -10.8045  -20.1759   20.9372 N.ar    1  UNL1       -0.0635
     18 N         -11.9208  -19.2610   20.5287 N.ar    1  UNL1       -0.1288
     19 C         -11.8640  -18.0421   21.4012 C.ar    1  UNL1        0.1217
     20 C         -12.7119  -16.8060   21.4552 C.ar    1  UNL1        0.0225
     21 C         -12.4085  -15.7315   22.4568 C.ar    1  UNL1        0.0017
     22 C         -11.2570  -15.8931   23.4045 C.ar    1  UNL1        0.0016
     23 C         -10.4090  -17.1292   23.3505 C.ar    1  UNL1        0.0204
     24 C         -10.7125  -18.2037   22.3489 C.ar    1  UNL1        0.0992
@<TRIPOS>BOND
     1     7     8    1
     2     8     9   ar
     3     9    10   ar
     4    10    11    1
     5    10    12   ar
     6    12    13   ar
     7    13    14   ar
     8    14     1    1
     9     1     2   ar
    10     2     3   ar
    11     3     4   ar
    12     4    15    1
    13    15    16    1
    14    16    17   ar
    15    17    18   ar
    16    18    19   ar
    17    19    20   ar
    18    20    21   ar
    19    21    22   ar
    20    22    23   ar
    21    23    24   ar
    22     4     5   ar
    23     5     6   ar
    24    14     8   ar
    25     6     1   ar
    26    24    16   ar
    27    24    19   ar
@<TRIPOS>MOLECULE
*****
 24 27 0 0 0
SMALL
GASTEIGER

@<TRIPOS>ATOM
      1 C         -13.6129   -3.3143   18.7790 C.ar    1  UNL1        0.0835
      2 C         -14.1322   -2.6893   20.0398 C.ar    1  UNL1        0.0190
      3 C         -15.2236   -1.6624   19.9734 C.ar    1  UNL1        0.0008
      4 C         -15.7956   -1.2606   18.6463 C.ar    1  UNL1        0.0213
      5 C         -15.2763   -1.8856   17.3855 C.ar    1  UNL1        0.0965
      6 N         -14.1849   -2.9125   17.4519 N.ar    1  UNL1       -0.2440
      7 F         -10.7418   -2.4485   18.8636 F       1  UNL1       -0.2041
      8 C         -11.0860   -3.9083   18.8876 C.ar    1  UNL1        0.1424
      9 C          -9.9945   -4.9352   18.9539 C.ar    1  UNL1        0.0411
     10 C         -10.3387   -6.3950   18.9779 C.ar    1  UNL1        0.0599
     11 CL         -9.2474   -7.4219   19.0442 Cl      1  UNL1       -0.0822
     12 C         -11.7743   -6.8279   18.9357 C.ar    1  UNL1        0.0116
     13 C         -12.8657   -5.8010   18.8693 C.ar    1  UNL1        0.0046
     14 C         -12.5216   -4.3412   18.8453 C.ar    1  UNL1        0.0452
     15 C         -16.8870   -0.2336   18.5799 C.3     1  UNL1        0.1571
     16 N         -17.3217    0.4804   19.8254 N.ar    1  UNL1       -0.2272
     17 N         -18.3858    0.0227   20.7783 N.ar    1  UNL1       -0.0635
     18 N         -18.4903    1.0369   21.8785 N.ar    1  UNL1       -0.1288
     19 C         -17.4907    2.1216   21.6055 C.ar    1  UNL1        0.1217
     20 C         -17.1449    3.3779   22.3484 C.ar    1  UNL1        0.0225
     21 C         -16.0768    4.2903   21.8224 C.ar    1  UNL1        0.0017
     22 C         -15.3546    3.9464   20.5535 C.ar    1  UNL1        0.0016
     23 C         -15.7004    2.6900   19.8106 C.ar    1  UNL1        0.0204
     24 C         -16.7685    1.7776   20.3366 C.ar    1  UNL1        0.0992
@<TRIPOS>BOND
     1     7     8    1
     2     8     9   ar
     3     9    10   ar
     4    10    11    1
     5    10    12   ar
     6    12    13   ar
     7    13    14   ar
     8    14     1    1
     9     1     2   ar
    10     2     3   ar
    11     3     4   ar
    12     4    15    1
    13    15    16    1
    14    16    17   ar
    15    17    18   ar
    16    18    19   ar
    17    19    20   ar
    18    20    21   ar
    19    21    22   ar
    20    22    23   ar
    21    23    24   ar
    22     4     5   ar
    23     5     6   ar
    24    14     8   ar
    25     6     1   ar
    26    24    16   ar
    27    24    19   ar
