@<TRIPOS>MOLECULE
*****
 36 39 0 0 0
SMALL
GASTEIGER

@<TRIPOS>ATOM
      1 C          -5.7864  -20.5472   20.5425 C.ar    1  UNL1        0.2266
      2 C          -6.2642  -19.6941   21.6799 C.ar    1  UNL1        0.0617
      3 C          -7.6675  -19.1642   21.6819 C.ar    1  UNL1        0.0805
      4 C          -8.5928  -19.4873   20.5465 C.ar    1  UNL1        0.0590
      5 C         -10.0192  -19.1101   20.2756 C.ar    1  UNL1        0.1038
      6 N         -10.4228  -19.7300   18.9707 N.ar    1  UNL1       -0.1679
      7 N          -9.2459  -20.4904   18.4351 N.ar    1  UNL1       -0.2319
      8 C          -9.2068  -21.2648   17.1511 C.3     1  UNL1        0.1554
      9 C          -8.1149  -20.3404   19.4090 C.ar    1  UNL1        0.1639
     10 N          -6.7117  -20.8703   19.4070 N.ar    1  UNL1       -0.1928
     11 C         -10.8891  -18.2619   21.1552 C.ar    1  UNL1        0.0194
     12 C         -11.7082  -18.8989   22.2384 C.ar    1  UNL1        0.0016
     13 C         -12.5781  -18.0506   23.1179 C.ar    1  UNL1        0.0000
     14 C         -12.6289  -16.5653   22.9143 C.ar    1  UNL1        0.0000
     15 C         -11.8099  -15.9283   21.8311 C.ar    1  UNL1        0.0000
     16 C         -10.9400  -16.7766   20.9516 C.ar    1  UNL1        0.0016
     17 C          -8.1454  -18.3111   22.8194 C.3     1  UNL1        0.4189
     18 F          -8.6233  -17.4580   23.9569 F       1  UNL1       -0.1659
     19 F          -7.5923  -17.0941   22.1391 F       1  UNL1       -0.1659
     20 F          -8.6986  -19.5281   23.4998 F       1  UNL1       -0.1659
     21 O          -4.3831  -21.0772   20.5405 O.3     1  UNL1       -0.4501
     22 C          -3.2414  -20.1755   20.1752 C.3     1  UNL1        0.2910
     23 N          -3.6099  -17.8388   21.2495 N.am    1  UNL1       -0.2992
     24 C          -2.8042  -19.0976   21.1224 C.2     1  UNL1        0.2673
     25 O          -1.5612  -19.2786   21.9424 O.2     1  UNL1       -0.2711
     26 H          -4.4256  -17.7200   20.7113 H       1  UNL1        0.1498
     27 C          -3.1726  -16.7610   22.1966 C.3     1  UNL1        0.0942
     28 C          -1.9407  -15.9577   21.9016 C.3     1  UNL1        0.0262
     29 C          -5.5566  -15.9375   25.9234 C.ar    1  UNL1        0.1387
     30 C          -5.8009  -15.1300   24.6830 C.ar    1  UNL1        0.0366
     31 C          -5.0062  -15.4045   23.4408 C.ar    1  UNL1        0.0004
     32 C          -3.9673  -16.4865   23.4389 C.ar    1  UNL1       -0.0043
     33 C          -3.7231  -17.2940   24.6791 C.ar    1  UNL1        0.0004
     34 C          -4.5178  -17.0195   25.9214 C.ar    1  UNL1        0.0366
     35 C          -7.8352  -15.4619   27.0775 C.3     1  UNL1        0.2525
     36 O          -6.3513  -15.6631   27.1656 O.3     1  UNL1       -0.4714
@<TRIPOS>BOND
     1    35    36    1
     2    36    29    1
     3    29    30   ar
     4    30    31   ar
     5    31    32   ar
     6    32    27    1
     7    27    28    1
     8    27    23    1
     9    23    24   am
    10    24    25    2
    11    24    22    1
    12    22    21    1
    13    21     1    1
    14     1     2   ar
    15     2     3   ar
    16     3    17    1
    17    17    18    1
    18    17    19    1
    19    17    20    1
    20     3     4   ar
    21     4     5   ar
    22     5    11    1
    23    11    12   ar
    24    12    13   ar
    25    13    14   ar
    26    14    15   ar
    27    15    16   ar
    28     5     6   ar
    29     6     7   ar
    30     7     8    1
    31     7     9   ar
    32     9    10   ar
    33    32    33   ar
    34    33    34   ar
    35    34    29   ar
    36    10     1   ar
    37     9     4   ar
    38    16    11   ar
    39    23    26    1
@<TRIPOS>MOLECULE
*****
 36 39 0 0 0
SMALL
GASTEIGER

@<TRIPOS>ATOM
      1 C           0.9655    1.1676   23.6266 C.ar    1  UNL1        0.2266
      2 C           1.0575    0.9670   22.1430 C.ar    1  UNL1        0.0617
      3 C           2.0833    0.0316   21.5749 C.ar    1  UNL1        0.0805
      4 C           3.0170   -0.7031   22.4904 C.ar    1  UNL1        0.0590
      5 C           4.1215   -1.6823   22.2226 C.ar    1  UNL1        0.1038
      6 N           4.7121   -2.0867   23.5408 N.ar    1  UNL1       -0.1679
      7 N           3.9726   -1.3576   24.6233 N.ar    1  UNL1       -0.2319
      8 C           4.2347   -1.4647   26.0963 C.3     1  UNL1        0.1554
      9 C           2.9250   -0.5025   23.9741 C.ar    1  UNL1        0.1639
     10 N           1.8993    0.4329   24.5421 N.ar    1  UNL1       -0.1928
     11 C           4.5586   -2.1710   20.8736 C.ar    1  UNL1        0.0194
     12 C           5.6465   -1.4525   20.1318 C.ar    1  UNL1        0.0016
     13 C           6.0835   -1.9414   18.7828 C.ar    1  UNL1        0.0000
     14 C           5.4327   -3.1487   18.1755 C.ar    1  UNL1        0.0000
     15 C           4.3448   -3.8672   18.9172 C.ar    1  UNL1        0.0000
     16 C           3.9078   -3.3783   20.2663 C.ar    1  UNL1        0.0016
     17 C           2.1753   -0.1691   20.0912 C.3     1  UNL1        0.4189
     18 F           2.2674   -0.3697   18.6075 F       1  UNL1       -0.1659
     19 F           3.2448    0.8799   20.0157 F       1  UNL1       -0.1659
     20 F           1.1059   -1.2181   20.1666 F       1  UNL1       -0.1659
     21 O          -0.0604    2.1030   24.1948 O.3     1  UNL1       -0.4501
     22 C           0.2564    2.9093   25.4193 C.3     1  UNL1        0.2910
     23 N           0.2226    0.9089   27.0768 N.am    1  UNL1       -0.2992
     24 C          -0.0435    2.3550   26.7806 C.2     1  UNL1        0.2673
     25 O          -0.6095    3.2470   27.8455 O.2     1  UNL1       -0.2711
     26 H           0.5941    0.3235   26.3779 H       1  UNL1        0.1498
     27 C          -0.0773    0.3547   28.4380 C.3     1  UNL1        0.0942
     28 C          -1.4009   -0.2979   28.7072 C.3     1  UNL1        0.0262
     29 C           2.9936    0.6495   31.7141 C.ar    1  UNL1        0.1387
     30 C           1.8849    1.6567   31.6325 C.ar    1  UNL1        0.0366
     31 C           0.8613    1.5584   30.5405 C.ar    1  UNL1        0.0004
     32 C           0.9463    0.4530   29.5300 C.ar    1  UNL1       -0.0043
     33 C           2.0549   -0.5541   29.6117 C.ar    1  UNL1        0.0004
     34 C           3.0786   -0.4558   30.7037 C.ar    1  UNL1        0.0366
     35 C           4.2239   -0.4028   33.7461 C.3     1  UNL1        0.2525
     36 O           4.0172    0.7478   32.8061 O.3     1  UNL1       -0.4714
@<TRIPOS>BOND
     1    35    36    1
     2    36    29    1
     3    29    30   ar
     4    30    31   ar
     5    31    32   ar
     6    32    27    1
     7    27    28    1
     8    27    23    1
     9    23    24   am
    10    24    25    2
    11    24    22    1
    12    22    21    1
    13    21     1    1
    14     1     2   ar
    15     2     3   ar
    16     3    17    1
    17    17    18    1
    18    17    19    1
    19    17    20    1
    20     3     4   ar
    21     4     5   ar
    22     5    11    1
    23    11    12   ar
    24    12    13   ar
    25    13    14   ar
    26    14    15   ar
    27    15    16   ar
    28     5     6   ar
    29     6     7   ar
    30     7     8    1
    31     7     9   ar
    32     9    10   ar
    33    32    33   ar
    34    33    34   ar
    35    34    29   ar
    36    10     1   ar
    37     9     4   ar
    38    16    11   ar
    39    23    26    1
@<TRIPOS>MOLECULE
*****
 36 39 0 0 0
SMALL
GASTEIGER

@<TRIPOS>ATOM
      1 C           7.4982   -5.3190   24.6604 C.ar    1  UNL1        0.2266
      2 C           7.3278   -4.0515   25.4442 C.ar    1  UNL1        0.0617
      3 C           7.5243   -4.0572   26.9313 C.ar    1  UNL1        0.0805
      4 C           7.8912   -5.3303   27.6345 C.ar    1  UNL1        0.0590
      5 C           8.1478   -5.6408   29.0795 C.ar    1  UNL1        0.1038
      6 N           8.4768   -7.1002   29.1886 N.ar    1  UNL1       -0.1679
      7 N           8.4235   -7.6916   27.8112 N.ar    1  UNL1       -0.2319
      8 C           8.6860   -9.1252   27.4565 C.3     1  UNL1        0.1554
      9 C           8.0615   -6.5978   26.8507 C.ar    1  UNL1        0.1639
     10 N           7.8651   -6.5922   25.3637 N.ar    1  UNL1       -0.1928
     11 C           8.0863   -4.6634   30.2157 C.ar    1  UNL1        0.0194
     12 C           6.7970   -4.4494   30.9519 C.ar    1  UNL1        0.0016
     13 C           6.7355   -3.4721   32.0881 C.ar    1  UNL1        0.0000
     14 C           7.9633   -2.7088   32.4881 C.ar    1  UNL1        0.0000
     15 C           9.2525   -2.9228   31.7519 C.ar    1  UNL1        0.0000
     16 C           9.3140   -3.9001   30.6157 C.ar    1  UNL1        0.0016
     17 C           7.3539   -2.7897   27.7152 C.3     1  UNL1        0.4189
     18 F           7.1836   -1.5222   28.4990 F       1  UNL1       -0.1659
     19 F           8.8065   -2.4720   27.5172 F       1  UNL1       -0.1659
     20 F           5.9014   -3.1073   27.9131 F       1  UNL1       -0.1659
     21 O           7.3018   -5.3134   23.1733 O.3     1  UNL1       -0.4501
     22 C           6.9515   -4.0369   22.4679 C.3     1  UNL1        0.2910
     23 N           5.5400   -3.8398   20.2956 N.am    1  UNL1       -0.2992
     24 C           5.6198   -3.8942   21.7924 C.2     1  UNL1        0.2673
     25 O           4.3678   -3.8059   22.6139 O.2     1  UNL1       -0.2711
     26 H           6.3617   -3.8977   19.7564 H       1  UNL1        0.1498
     27 C           4.2083   -3.6971   19.6202 C.3     1  UNL1        0.0942
     28 C           3.3989   -4.9169   19.2928 C.3     1  UNL1        0.0262
     29 C           2.6412    0.3900   18.5763 C.ar    1  UNL1        0.1387
     30 C           2.1906   -0.2865   19.8370 C.ar    1  UNL1        0.0366
     31 C           2.7130   -1.6489   20.1850 C.ar    1  UNL1        0.0004
     32 C           3.6859   -2.3347   19.2723 C.ar    1  UNL1       -0.0043
     33 C           4.1365   -1.6582   18.0116 C.ar    1  UNL1        0.0004
     34 C           3.6141   -0.2959   17.6636 C.ar    1  UNL1        0.0366
     35 C           0.6824    2.0946   18.4918 C.3     1  UNL1        0.2525
     36 O           2.1189    1.7524   18.2283 O.3     1  UNL1       -0.4714
@<TRIPOS>BOND
     1    35    36    1
     2    36    29    1
     3    29    30   ar
     4    30    31   ar
     5    31    32   ar
     6    32    27    1
     7    27    28    1
     8    27    23    1
     9    23    24   am
    10    24    25    2
    11    24    22    1
    12    22    21    1
    13    21     1    1
    14     1     2   ar
    15     2     3   ar
    16     3    17    1
    17    17    18    1
    18    17    19    1
    19    17    20    1
    20     3     4   ar
    21     4     5   ar
    22     5    11    1
    23    11    12   ar
    24    12    13   ar
    25    13    14   ar
    26    14    15   ar
    27    15    16   ar
    28     5     6   ar
    29     6     7   ar
    30     7     8    1
    31     7     9   ar
    32     9    10   ar
    33    32    33   ar
    34    33    34   ar
    35    34    29   ar
    36    10     1   ar
    37     9     4   ar
    38    16    11   ar
    39    23    26    1
@<TRIPOS>MOLECULE
*****
 36 39 0 0 0
SMALL
GASTEIGER

@<TRIPOS>ATOM
      1 C           3.2587    0.0993   18.5669 C.ar    1  UNL1        0.2266
      2 C           3.5637   -1.3693   18.5649 C.ar    1  UNL1        0.0617
      3 C           4.8163   -1.8761   19.2161 C.ar    1  UNL1        0.0805
      4 C           5.7640   -0.9142   19.8692 C.ar    1  UNL1        0.0590
      5 C           7.0665   -1.1182   20.5849 C.ar    1  UNL1        0.1038
      6 N           7.5664    0.2244   21.0291 N.ar    1  UNL1       -0.1679
      7 N           6.5730    1.2582   20.5881 N.ar    1  UNL1       -0.2319
      8 C           6.6755    2.7361   20.8228 C.3     1  UNL1        0.1554
      9 C           5.4590    0.5545   19.8713 C.ar    1  UNL1        0.1639
     10 N           4.2064    1.0612   19.2201 N.ar    1  UNL1       -0.1928
     11 C           7.7491   -2.4338   20.8156 C.ar    1  UNL1        0.0194
     12 C           7.3289   -3.3059   21.9614 C.ar    1  UNL1        0.0016
     13 C           8.0115   -4.6215   22.1920 C.ar    1  UNL1        0.0000
     14 C           9.1143   -5.0649   21.2771 C.ar    1  UNL1        0.0000
     15 C           9.5345   -4.1927   20.1313 C.ar    1  UNL1        0.0000
     16 C           8.8519   -2.8772   19.9006 C.ar    1  UNL1        0.0016
     17 C           5.1213   -3.3448   19.2140 C.3     1  UNL1        0.4189
     18 F           5.4263   -4.8134   19.2121 F       1  UNL1       -0.1659
     19 F           4.2488   -3.5276   20.4203 F       1  UNL1       -0.1659
     20 F           5.9939   -3.1620   18.0078 F       1  UNL1       -0.1659
     21 O           2.0060    0.6061   17.9158 O.3     1  UNL1       -0.4501
     22 C           0.9261    1.2287   18.7501 C.3     1  UNL1        0.2910
     23 N           1.6651    1.5260   21.2231 N.am    1  UNL1       -0.2992
     24 C           0.7927    0.8630   20.1988 C.2     1  UNL1        0.2673
     25 O          -0.2131   -0.1657   20.6231 O.2     1  UNL1       -0.2711
     26 H           2.3253    2.2012   20.9446 H       1  UNL1        0.1498
     27 C           1.5317    1.1603   22.6716 C.3     1  UNL1        0.0942
     28 C           0.4343    1.7614   23.4990 C.3     1  UNL1        0.0262
     29 C           4.4237   -1.7400   24.5356 C.ar    1  UNL1        0.1387
     30 C           4.1037   -1.8353   23.0732 C.ar    1  UNL1        0.0366
     31 C           3.1397   -0.8685   22.4519 C.ar    1  UNL1        0.0004
     32 C           2.4957    0.1935   23.2930 C.ar    1  UNL1       -0.0043
     33 C           2.8157    0.2887   24.7553 C.ar    1  UNL1        0.0004
     34 C           3.7797   -0.6780   25.3767 C.ar    1  UNL1        0.0366
     35 C           6.3931   -2.2235   26.1598 C.3     1  UNL1        0.2525
     36 O           5.3877   -2.7068   25.1570 O.3     1  UNL1       -0.4714
@<TRIPOS>BOND
     1    35    36    1
     2    36    29    1
     3    29    30   ar
     4    30    31   ar
     5    31    32   ar
     6    32    27    1
     7    27    28    1
     8    27    23    1
     9    23    24   am
    10    24    25    2
    11    24    22    1
    12    22    21    1
    13    21     1    1
    14     1     2   ar
    15     2     3   ar
    16     3    17    1
    17    17    18    1
    18    17    19    1
    19    17    20    1
    20     3     4   ar
    21     4     5   ar
    22     5    11    1
    23    11    12   ar
    24    12    13   ar
    25    13    14   ar
    26    14    15   ar
    27    15    16   ar
    28     5     6   ar
    29     6     7   ar
    30     7     8    1
    31     7     9   ar
    32     9    10   ar
    33    32    33   ar
    34    33    34   ar
    35    34    29   ar
    36    10     1   ar
    37     9     4   ar
    38    16    11   ar
    39    23    26    1
@<TRIPOS>MOLECULE
*****
 36 39 0 0 0
SMALL
GASTEIGER

@<TRIPOS>ATOM
      1 C           6.5443   -1.3481   18.3345 C.ar    1  UNL1        0.2266
      2 C           7.4252   -1.0904   19.5209 C.ar    1  UNL1        0.0617
      3 C           7.2161   -1.8598   20.7914 C.ar    1  UNL1        0.0805
      4 C           6.1262   -2.8870   20.8755 C.ar    1  UNL1        0.0590
      5 C           5.6852   -3.7939   21.9860 C.ar    1  UNL1        0.1038
      6 N           4.5318   -4.6121   21.4858 N.ar    1  UNL1       -0.1679
      7 N           4.2600   -4.2109   20.0662 N.ar    1  UNL1       -0.2319
      8 C           3.1905   -4.7765   19.1795 C.3     1  UNL1        0.1554
      9 C           5.2454   -3.1447   19.6890 C.ar    1  UNL1        0.1639
     10 N           5.4544   -2.3753   18.4185 N.ar    1  UNL1       -0.1928
     11 C           6.2912   -3.8693   23.3560 C.ar    1  UNL1        0.0194
     12 C           7.3909   -4.8500   23.6367 C.ar    1  UNL1        0.0016
     13 C           7.9969   -4.9254   25.0068 C.ar    1  UNL1        0.0000
     14 C           7.5031   -4.0201   26.0961 C.ar    1  UNL1        0.0000
     15 C           6.4034   -3.0393   25.8154 C.ar    1  UNL1        0.0000
     16 C           5.7975   -2.9640   24.4453 C.ar    1  UNL1        0.0016
     17 C           8.0969   -1.6021   21.9779 C.3     1  UNL1        0.4189
     18 F           8.9778   -1.3445   23.1644 F       1  UNL1       -0.1659
     19 F           9.0733   -2.6237   21.4749 F       1  UNL1       -0.1659
     20 F           7.1206   -0.5806   22.4810 F       1  UNL1       -0.1659
     21 O           6.7534   -0.5786   17.0639 O.3     1  UNL1       -0.4501
     22 C           5.8138    0.5313   16.6960 C.3     1  UNL1        0.2910
     23 N           3.5390    0.1644   17.8963 N.am    1  UNL1       -0.2992
     24 C           4.7728    0.9881   17.6747 C.2     1  UNL1        0.2673
     25 O           4.9658    2.2686   18.4318 O.2     1  UNL1       -0.2711
     26 H           3.4123   -0.6760   17.3995 H       1  UNL1        0.1498
     27 C           2.4981    0.6213   18.8750 C.3     1  UNL1        0.0942
     28 C           1.2381    1.2691   18.3821 C.3     1  UNL1        0.0262
     29 C           3.1550    0.0484   23.2898 C.ar    1  UNL1        0.1387
     30 C           2.9762    1.4290   22.7310 C.ar    1  UNL1        0.0366
     31 C           2.7573    1.6199   21.2595 C.ar    1  UNL1        0.0004
     32 C           2.7171    0.4303   20.3466 C.ar    1  UNL1       -0.0043
     33 C           2.8959   -0.9502   20.9053 C.ar    1  UNL1        0.0004
     34 C           3.1148   -1.1411   22.3769 C.ar    1  UNL1        0.0366
     35 C           4.5876    0.4422   25.4211 C.3     1  UNL1        0.2525
     36 O           3.3740   -0.1426   24.7613 O.3     1  UNL1       -0.4714
@<TRIPOS>BOND
     1    35    36    1
     2    36    29    1
     3    29    30   ar
     4    30    31   ar
     5    31    32   ar
     6    32    27    1
     7    27    28    1
     8    27    23    1
     9    23    24   am
    10    24    25    2
    11    24    22    1
    12    22    21    1
    13    21     1    1
    14     1     2   ar
    15     2     3   ar
    16     3    17    1
    17    17    18    1
    18    17    19    1
    19    17    20    1
    20     3     4   ar
    21     4     5   ar
    22     5    11    1
    23    11    12   ar
    24    12    13   ar
    25    13    14   ar
    26    14    15   ar
    27    15    16   ar
    28     5     6   ar
    29     6     7   ar
    30     7     8    1
    31     7     9   ar
    32     9    10   ar
    33    32    33   ar
    34    33    34   ar
    35    34    29   ar
    36    10     1   ar
    37     9     4   ar
    38    16    11   ar
    39    23    26    1
@<TRIPOS>MOLECULE
*****
 36 39 0 0 0
SMALL
GASTEIGER

@<TRIPOS>ATOM
      1 C           0.3554    0.8447   20.8232 C.ar    1  UNL1        0.2266
      2 C           1.1588    0.0835   19.8107 C.ar    1  UNL1        0.0617
      3 C           2.4431   -0.5771   20.2155 C.ar    1  UNL1        0.0805
      4 C           2.9241   -0.4767   21.6327 C.ar    1  UNL1        0.0590
      5 C           4.1418   -1.0195   22.3203 C.ar    1  UNL1        0.1038
      6 N           4.0909   -0.5939   23.7577 N.ar    1  UNL1       -0.1679
      7 N           2.8418    0.2120   23.9585 N.ar    1  UNL1       -0.2319
      8 C           2.3926    0.8360   25.2465 C.3     1  UNL1        0.1554
      9 C           2.1207    0.2845   22.6452 C.ar    1  UNL1        0.1639
     10 N           0.8363    0.9451   22.2405 N.ar    1  UNL1       -0.1928
     11 C           5.2208   -1.8434   21.6824 C.ar    1  UNL1        0.0194
     12 C           5.1508   -3.3409   21.7343 C.ar    1  UNL1        0.0016
     13 C           6.2299   -4.1646   21.0964 C.ar    1  UNL1        0.0000
     14 C           7.3789   -3.4910   20.4066 C.ar    1  UNL1        0.0000
     15 C           7.4489   -1.9935   20.3546 C.ar    1  UNL1        0.0000
     16 C           6.3699   -1.1698   20.9925 C.ar    1  UNL1        0.0016
     17 C           3.2466   -1.3383   19.2030 C.3     1  UNL1        0.4189
     18 F           4.0500   -2.0995   18.1905 F       1  UNL1       -0.1659
     19 F           2.6520   -2.6236   19.6974 F       1  UNL1       -0.1659
     20 F           3.8412   -0.0531   18.7085 F       1  UNL1       -0.1659
     21 O          -0.9291    1.5054   20.4185 O.3     1  UNL1       -0.4501
     22 C          -1.1441    2.9628   20.7006 C.3     1  UNL1        0.2910
     23 N          -3.7272    2.7184   20.8358 N.am    1  UNL1       -0.2992
     24 C          -2.5142    3.5586   20.5661 C.2     1  UNL1        0.2673
     25 O          -2.6713    4.9946   20.1621 O.2     1  UNL1       -0.2711
     26 H          -3.6241    1.7759   21.1010 H       1  UNL1        0.1498
     27 C          -5.0972    3.3142   20.7014 C.3     1  UNL1        0.0942
     28 C          -5.8009    3.2855   19.3769 C.3     1  UNL1        0.0262
     29 C          -7.0962    5.1876   24.2712 C.ar    1  UNL1        0.1387
     30 C          -5.9351    4.2577   24.4640 C.ar    1  UNL1        0.0366
     31 C          -5.2687    3.6332   23.2741 C.ar    1  UNL1        0.0004
     32 C          -5.7635    3.9386   21.8913 C.ar    1  UNL1       -0.0043
     33 C          -6.9246    4.8685   21.6986 C.ar    1  UNL1        0.0004
     34 C          -7.5910    5.4930   22.8885 C.ar    1  UNL1        0.0366
     35 C          -6.9492    6.1909   26.6633 C.3     1  UNL1        0.2525
     36 O          -7.7626    5.8121   25.4612 O.3     1  UNL1       -0.4714
@<TRIPOS>BOND
     1    35    36    1
     2    36    29    1
     3    29    30   ar
     4    30    31   ar
     5    31    32   ar
     6    32    27    1
     7    27    28    1
     8    27    23    1
     9    23    24   am
    10    24    25    2
    11    24    22    1
    12    22    21    1
    13    21     1    1
    14     1     2   ar
    15     2     3   ar
    16     3    17    1
    17    17    18    1
    18    17    19    1
    19    17    20    1
    20     3     4   ar
    21     4     5   ar
    22     5    11    1
    23    11    12   ar
    24    12    13   ar
    25    13    14   ar
    26    14    15   ar
    27    15    16   ar
    28     5     6   ar
    29     6     7   ar
    30     7     8    1
    31     7     9   ar
    32     9    10   ar
    33    32    33   ar
    34    33    34   ar
    35    34    29   ar
    36    10     1   ar
    37     9     4   ar
    38    16    11   ar
    39    23    26    1
@<TRIPOS>MOLECULE
*****
 36 39 0 0 0
SMALL
GASTEIGER

@<TRIPOS>ATOM
      1 C           5.1178   -1.2682   26.2821 C.ar    1  UNL1        0.2266
      2 C           4.5508   -0.7231   25.0049 C.ar    1  UNL1        0.0617
      3 C           4.7920   -1.4415   23.7105 C.ar    1  UNL1        0.0805
      4 C           5.6002   -2.7050   23.6932 C.ar    1  UNL1        0.0590
      5 C           6.0013   -3.6248   22.5782 C.ar    1  UNL1        0.1038
      6 N           6.8161   -4.7384   23.1663 N.ar    1  UNL1       -0.1679
      7 N           6.9188   -4.5068   24.6448 N.ar    1  UNL1       -0.2319
      8 C           7.6453   -5.3788   25.6255 C.3     1  UNL1        0.1554
      9 C           6.1673   -3.2501   24.9704 C.ar    1  UNL1        0.1639
     10 N           5.9261   -2.5317   26.2649 N.ar    1  UNL1       -0.1928
     11 C           5.6492   -3.4600   21.1294 C.ar    1  UNL1        0.0194
     12 C           6.5887   -2.7424   20.2062 C.ar    1  UNL1        0.0016
     13 C           6.2366   -2.5776   18.7575 C.ar    1  UNL1        0.0000
     14 C           4.9449   -3.1303   18.2320 C.ar    1  UNL1        0.0000
     15 C           4.0054   -3.8479   19.1552 C.ar    1  UNL1        0.0000
     16 C           4.3575   -4.0127   20.6039 C.ar    1  UNL1        0.0016
     17 C           4.2249   -0.8964   22.4332 C.3     1  UNL1        0.4189
     18 F           3.6579   -0.3514   21.1560 F       1  UNL1       -0.1659
     19 F           2.9255   -1.5912   22.7136 F       1  UNL1       -0.1659
     20 F           5.5244   -0.2016   22.1527 F       1  UNL1       -0.1659
     21 O           4.8766   -0.5498   27.5767 O.3     1  UNL1       -0.4501
     22 C           3.6555   -0.8603   28.3906 C.3     1  UNL1        0.2910
     23 N           1.1184   -0.4218   28.0433 N.am    1  UNL1       -0.2992
     24 C           2.4893    0.0831   28.3831 C.2     1  UNL1        0.2673
     25 O           2.6941    1.5314   28.7155 O.2     1  UNL1       -0.2711
     26 H           0.9839   -1.3724   27.8251 H       1  UNL1        0.1498
     27 C          -0.0478    0.5216   28.0358 C.3     1  UNL1        0.0942
     28 C          -0.9329    0.6295   29.2420 C.3     1  UNL1        0.0262
     29 C          -0.8909    3.0282   24.3949 C.ar    1  UNL1        0.1387
     30 C           0.1070    1.9105   24.3214 C.ar    1  UNL1        0.0366
     31 C           0.3880    1.0750   25.5350 C.ar    1  UNL1        0.0004
     32 C          -0.3288    1.3571   26.8222 C.ar    1  UNL1       -0.0043
     33 C          -1.3265    2.4747   26.8957 C.ar    1  UNL1        0.0004
     34 C          -1.6076    3.3102   25.6820 C.ar    1  UNL1        0.0366
     35 C          -1.1082    3.2473   21.8152 C.3     1  UNL1        0.2525
     36 O          -1.1719    3.8637   23.1813 O.3     1  UNL1       -0.4714
@<TRIPOS>BOND
     1    35    36    1
     2    36    29    1
     3    29    30   ar
     4    30    31   ar
     5    31    32   ar
     6    32    27    1
     7    27    28    1
     8    27    23    1
     9    23    24   am
    10    24    25    2
    11    24    22    1
    12    22    21    1
    13    21     1    1
    14     1     2   ar
    15     2     3   ar
    16     3    17    1
    17    17    18    1
    18    17    19    1
    19    17    20    1
    20     3     4   ar
    21     4     5   ar
    22     5    11    1
    23    11    12   ar
    24    12    13   ar
    25    13    14   ar
    26    14    15   ar
    27    15    16   ar
    28     5     6   ar
    29     6     7   ar
    30     7     8    1
    31     7     9   ar
    32     9    10   ar
    33    32    33   ar
    34    33    34   ar
    35    34    29   ar
    36    10     1   ar
    37     9     4   ar
    38    16    11   ar
    39    23    26    1
@<TRIPOS>MOLECULE
*****
 36 39 0 0 0
SMALL
GASTEIGER

@<TRIPOS>ATOM
      1 C           4.1979    1.4601   18.9322 C.ar    1  UNL1        0.2266
      2 C           2.7240    1.5101   19.2058 C.ar    1  UNL1        0.0617
      3 C           2.2279    1.7697   20.5974 C.ar    1  UNL1        0.0805
      4 C           3.2059    1.9795   21.7153 C.ar    1  UNL1        0.0590
      5 C           3.0149    2.2527   23.1778 C.ar    1  UNL1        0.1038
      6 N           4.3709    2.3717   23.8080 N.ar    1  UNL1       -0.1679
      7 N           5.3998    2.1720   22.7350 N.ar    1  UNL1       -0.2319
      8 C           6.8876    2.2083   22.9224 C.3     1  UNL1        0.1554
      9 C           4.6798    1.9296   21.4416 C.ar    1  UNL1        0.1639
     10 N           5.1758    1.6699   20.0501 N.ar    1  UNL1       -0.1928
     11 C           1.6990    2.3840   23.8858 C.ar    1  UNL1        0.0194
     12 C           0.9828    3.7018   23.8993 C.ar    1  UNL1        0.0016
     13 C          -0.3331    3.8330   24.6073 C.ar    1  UNL1        0.0000
     14 C          -0.9327    2.6463   25.3018 C.ar    1  UNL1        0.0000
     15 C          -0.2164    1.3284   25.2882 C.ar    1  UNL1        0.0000
     16 C           1.0994    1.1973   24.5802 C.ar    1  UNL1        0.0016
     17 C           0.7539    1.8197   20.8711 C.3     1  UNL1        0.4189
     18 F          -0.7200    1.8695   21.1448 F       1  UNL1       -0.1659
     19 F           0.7680    0.3592   21.2128 F       1  UNL1       -0.1659
     20 F           0.7399    3.2801   20.5294 F       1  UNL1       -0.1659
     21 O           4.6940    1.2004   17.5406 O.3     1  UNL1       -0.4501
     22 C           4.9329   -0.2069   17.0799 C.3     1  UNL1        0.2910
     23 N           3.8079   -2.1219   18.4281 N.am    1  UNL1       -0.2992
     24 C           5.0267   -1.3186   18.0827 C.2     1  UNL1        0.2673
     25 O           6.3392   -1.6269   18.7400 O.2     1  UNL1       -0.2711
     26 H           2.9464   -1.9195   17.9966 H       1  UNL1        0.1498
     27 C           3.9017   -3.2335   19.4308 C.3     1  UNL1        0.0942
     28 C           3.8018   -4.6607   18.9799 C.3     1  UNL1        0.0262
     29 C           4.4829   -2.2870   23.7915 C.ar    1  UNL1        0.1387
     30 C           3.6468   -1.3846   22.9332 C.ar    1  UNL1        0.0366
     31 C           3.4531   -1.7001   21.4796 C.ar    1  UNL1        0.0004
     32 C           4.0954   -2.9180   20.8844 C.ar    1  UNL1       -0.0043
     33 C           4.9314   -3.8203   21.7427 C.ar    1  UNL1        0.0004
     34 C           5.1252   -3.5048   23.1963 C.ar    1  UNL1        0.0366
     35 C           3.9389   -0.8236   25.8682 C.3     1  UNL1        0.2525
     36 O           4.6766   -1.9715   25.2451 O.3     1  UNL1       -0.4714
@<TRIPOS>BOND
     1    35    36    1
     2    36    29    1
     3    29    30   ar
     4    30    31   ar
     5    31    32   ar
     6    32    27    1
     7    27    28    1
     8    27    23    1
     9    23    24   am
    10    24    25    2
    11    24    22    1
    12    22    21    1
    13    21     1    1
    14     1     2   ar
    15     2     3   ar
    16     3    17    1
    17    17    18    1
    18    17    19    1
    19    17    20    1
    20     3     4   ar
    21     4     5   ar
    22     5    11    1
    23    11    12   ar
    24    12    13   ar
    25    13    14   ar
    26    14    15   ar
    27    15    16   ar
    28     5     6   ar
    29     6     7   ar
    30     7     8    1
    31     7     9   ar
    32     9    10   ar
    33    32    33   ar
    34    33    34   ar
    35    34    29   ar
    36    10     1   ar
    37     9     4   ar
    38    16    11   ar
    39    23    26    1
@<TRIPOS>MOLECULE
*****
 36 39 0 0 0
SMALL
GASTEIGER

@<TRIPOS>ATOM
      1 C           0.6743    2.9692   19.7019 C.ar    1  UNL1        0.2266
      2 C           1.4058    2.2380   18.6155 C.ar    1  UNL1        0.0617
      3 C           2.2287    1.0288   18.9480 C.ar    1  UNL1        0.0805
      4 C           2.3201    0.5508   20.3668 C.ar    1  UNL1        0.0590
      5 C           3.0483   -0.6017   20.9927 C.ar    1  UNL1        0.1038
      6 N           2.7668   -0.5828   22.4659 N.ar    1  UNL1       -0.1679
      7 N           1.8647    0.5814   22.7505 N.ar    1  UNL1       -0.2319
      8 C           1.3321    0.9758   24.0962 C.3     1  UNL1        0.1554
      9 C           1.5887    1.2819   21.4532 C.ar    1  UNL1        0.1639
     10 N           0.7658    2.4911   21.1207 N.ar    1  UNL1       -0.1928
     11 C           3.9071   -1.5982   20.2719 C.ar    1  UNL1        0.0194
     12 C           3.2883   -2.8243   19.6688 C.ar    1  UNL1        0.0016
     13 C           4.1472   -3.8206   18.9480 C.ar    1  UNL1        0.0000
     14 C           5.6248   -3.5909   18.8303 C.ar    1  UNL1        0.0000
     15 C           6.2436   -2.3648   19.4334 C.ar    1  UNL1        0.0000
     16 C           5.3847   -1.3685   20.1542 C.ar    1  UNL1        0.0016
     17 C           2.9603    0.2976   17.8616 C.3     1  UNL1        0.4189
     18 F           3.6918   -0.4336   16.7752 F       1  UNL1       -0.1659
     19 F           4.2155    1.0436   18.2047 F       1  UNL1       -0.1659
     20 F           1.7050   -0.4485   17.5184 F       1  UNL1       -0.1659
     21 O          -0.1486    4.1785   19.3695 O.3     1  UNL1       -0.4501
     22 C          -1.4425    4.0240   18.6266 C.3     1  UNL1        0.2910
     23 N          -3.5900    3.2230   19.8501 N.am    1  UNL1       -0.2992
     24 C          -2.7413    4.3354   19.3096 C.2     1  UNL1        0.2673
     25 O          -3.1912    5.7593   19.4521 O.2     1  UNL1       -0.2711
     26 H          -3.2947    2.2885   19.7566 H       1  UNL1        0.1498
     27 C          -4.8887    3.5345   20.5330 C.3     1  UNL1        0.0942
     28 C          -6.1417    3.6952   19.7242 C.3     1  UNL1        0.0262
     29 C          -5.0257    3.9865   25.0082 C.ar    1  UNL1        0.1387
     30 C          -3.7230    3.6971   24.3231 C.ar    1  UNL1        0.0366
     31 C          -3.6773    3.5464   22.8314 C.ar    1  UNL1        0.0004
     32 C          -4.9344    3.6852   22.0247 C.ar    1  UNL1       -0.0043
     33 C          -6.2370    3.9746   22.7098 C.ar    1  UNL1        0.0004
     34 C          -6.2827    4.1253   24.2015 C.ar    1  UNL1        0.0366
     35 C          -5.0996    5.5051   27.1150 C.3     1  UNL1        0.2525
     36 O          -5.0714    4.1372   26.4999 O.3     1  UNL1       -0.4714
@<TRIPOS>BOND
     1    35    36    1
     2    36    29    1
     3    29    30   ar
     4    30    31   ar
     5    31    32   ar
     6    32    27    1
     7    27    28    1
     8    27    23    1
     9    23    24   am
    10    24    25    2
    11    24    22    1
    12    22    21    1
    13    21     1    1
    14     1     2   ar
    15     2     3   ar
    16     3    17    1
    17    17    18    1
    18    17    19    1
    19    17    20    1
    20     3     4   ar
    21     4     5   ar
    22     5    11    1
    23    11    12   ar
    24    12    13   ar
    25    13    14   ar
    26    14    15   ar
    27    15    16   ar
    28     5     6   ar
    29     6     7   ar
    30     7     8    1
    31     7     9   ar
    32     9    10   ar
    33    32    33   ar
    34    33    34   ar
    35    34    29   ar
    36    10     1   ar
    37     9     4   ar
    38    16    11   ar
    39    23    26    1
