@<TRIPOS>MOLECULE
*****
 33 36 0 0 0
SMALL
GASTEIGER

@<TRIPOS>ATOM
      1 C          -8.2013    5.3064   23.8555 C.3     1  UNL1        0.0952
      2 C          -6.7971    5.1777   24.3669 C.2     1  UNL1        0.2302
      3 O          -6.4605    5.6310   25.7565 O.2     1  UNL1       -0.2745
      4 N          -5.7294    4.5958   23.4885 N.am    1  UNL1       -0.2515
      5 C          -6.0660    4.1426   22.0988 C.2     1  UNL1        0.0695
      6 C          -4.9984    3.5607   21.2205 C.2     1  UNL1        0.0366
      7 C          -3.5942    3.4320   21.7318 C.ar    1  UNL1        0.0993
      8 N          -2.5265    2.8500   20.8535 N.ar    1  UNL1       -0.2265
      9 C          -1.1223    2.7214   21.3648 C.ar    1  UNL1        0.1634
     10 C          -0.7856    3.1746   22.7545 C.ar    1  UNL1        0.1600
     11 N          -1.8533    3.7565   23.6329 N.ar    1  UNL1       -0.2291
     12 C          -3.2576    3.8852   23.1215 C.ar    1  UNL1        0.0985
     13 C          -4.3252    4.4671   23.9998 C.3     1  UNL1        0.1454
     14 N          -0.0546    2.1394   20.4864 N.pl3   1  UNL1       -0.2882
     15 C           0.1709    0.6566   20.4622 C.3     1  UNL1        0.1096
     16 C           1.2386    0.0747   19.5838 C.3     1  UNL1        0.0941
     17 N           2.0807    0.9756   18.7297 N.3     1  UNL1       -0.2659
     18 C           1.8551    2.4583   18.7540 C.3     1  UNL1        0.0941
     19 C           0.7874    3.0402   19.6324 C.3     1  UNL1        0.1096
     20 C           3.1483    0.3937   17.8514 C.3     1  UNL1        0.1015
     21 C           4.1332   -0.5863   18.4169 C.ar    1  UNL1        0.0215
     22 C           4.2965   -1.9359   17.7831 C.ar    1  UNL1        0.0016
     23 C           5.2814   -2.9159   18.3487 C.ar    1  UNL1        0.0295
     24 C           6.1029   -2.5462   19.5480 C.ar    1  UNL1        0.1424
     25 F           7.0877   -3.5260   20.1136 F       1  UNL1       -0.2041
     26 C           5.9395   -1.1964   20.1818 C.ar    1  UNL1        0.0590
     27 C           4.9547   -0.2165   19.6163 C.ar    1  UNL1        0.1397
     28 F           4.7913    1.1332   20.2500 F       1  UNL1       -0.2044
     29 N           0.6186    3.0459   23.2658 N.pl3   1  UNL1       -0.3175
     30 H           1.2556    3.7871   23.1470 H       1  UNL1        0.1482
     31 C           1.0524    1.7879   23.9582 C.3     1  UNL1        0.0706
     32 C           2.2647    1.0469   23.4773 C.3     1  UNL1        0.0212
     33 C           0.2738    1.2709   25.1314 C.3     1  UNL1        0.0212
@<TRIPOS>BOND
     1     1     2    1
     2     2     3    2
     3     2     4   am
     4     4     5    1
     5     5     6    2
     6     6     7    1
     7     7     8   ar
     8     8     9   ar
     9     9    14    1
    10    14    15    1
    11    15    16    1
    12    16    17    1
    13    17    20    1
    14    20    21    1
    15    21    22   ar
    16    22    23   ar
    17    23    24   ar
    18    24    25    1
    19    24    26   ar
    20    26    27   ar
    21    27    28    1
    22    17    18    1
    23    18    19    1
    24     9    10   ar
    25    10    29    1
    26    29    31    1
    27    31    32    1
    28    31    33    1
    29    10    11   ar
    30    11    12   ar
    31    12    13    1
    32    13     4    1
    33    12     7   ar
    34    19    14    1
    35    27    21   ar
    36    29    30    1
@<TRIPOS>MOLECULE
*****
 33 36 0 0 0
SMALL
GASTEIGER

@<TRIPOS>ATOM
      1 C           3.6124   -1.4820   18.2766 C.3     1  UNL1        0.0952
      2 C           4.6782   -2.3885   18.8171 C.2     1  UNL1        0.2302
      3 O           5.5358   -3.1820   17.8765 O.2     1  UNL1       -0.2745
      4 N           4.8864   -2.5015   20.2983 N.am    1  UNL1       -0.2515
      5 C           4.0288   -1.7081   21.2389 C.2     1  UNL1        0.0695
      6 C           4.2370   -1.8211   22.7201 C.2     1  UNL1        0.0366
      7 C           5.3028   -2.7276   23.2606 C.ar    1  UNL1        0.0993
      8 N           5.5109   -2.8407   24.7418 N.ar    1  UNL1       -0.2265
      9 C           6.5768   -3.7472   25.2823 C.ar    1  UNL1        0.1634
     10 C           7.4344   -4.5408   24.3417 C.ar    1  UNL1        0.1600
     11 N           7.2263   -4.4277   22.8605 N.ar    1  UNL1       -0.2291
     12 C           6.1604   -3.5211   22.3200 C.ar    1  UNL1        0.0985
     13 C           5.9522   -3.4081   20.8388 C.3     1  UNL1        0.1454
     14 N           6.7849   -3.8603   26.7635 N.pl3   1  UNL1       -0.2882
     15 C           6.3768   -5.1105   27.4850 C.3     1  UNL1        0.1096
     16 C           6.5850   -5.2236   28.9661 C.3     1  UNL1        0.0941
     17 N           7.2013   -4.0864   29.7259 N.3     1  UNL1       -0.2659
     18 C           7.6094   -2.8362   29.0044 C.3     1  UNL1        0.0941
     19 C           7.4012   -2.7232   27.5232 C.3     1  UNL1        0.1096
     20 C           7.4095   -4.1994   31.2070 C.3     1  UNL1        0.1015
     21 C           7.0056   -3.0713   32.1094 C.ar    1  UNL1        0.0215
     22 C           5.5611   -2.8725   32.4612 C.ar    1  UNL1        0.0016
     23 C           5.1573   -1.7443   33.3636 C.ar    1  UNL1        0.0295
     24 C           6.1980   -0.8150   33.9142 C.ar    1  UNL1        0.1424
     25 F           5.7943    0.3131   34.8165 F       1  UNL1       -0.2041
     26 C           7.6426   -1.0138   33.5624 C.ar    1  UNL1        0.0590
     27 C           8.0464   -2.1419   32.6601 C.ar    1  UNL1        0.1397
     28 F           9.4910   -2.3408   32.3083 F       1  UNL1       -0.2044
     29 N           8.5002   -5.4473   24.8822 N.pl3   1  UNL1       -0.3175
     30 H           9.2478   -5.0729   25.4020 H       1  UNL1        0.1482
     31 C           8.4270   -6.9243   24.6308 C.3     1  UNL1        0.0706
     32 C           9.0423   -7.5057   23.3925 C.3     1  UNL1        0.0212
     33 C           7.7386   -7.8198   25.6178 C.3     1  UNL1        0.0212
@<TRIPOS>BOND
     1     1     2    1
     2     2     3    2
     3     2     4   am
     4     4     5    1
     5     5     6    2
     6     6     7    1
     7     7     8   ar
     8     8     9   ar
     9     9    14    1
    10    14    15    1
    11    15    16    1
    12    16    17    1
    13    17    20    1
    14    20    21    1
    15    21    22   ar
    16    22    23   ar
    17    23    24   ar
    18    24    25    1
    19    24    26   ar
    20    26    27   ar
    21    27    28    1
    22    17    18    1
    23    18    19    1
    24     9    10   ar
    25    10    29    1
    26    29    31    1
    27    31    32    1
    28    31    33    1
    29    10    11   ar
    30    11    12   ar
    31    12    13    1
    32    13     4    1
    33    12     7   ar
    34    19    14    1
    35    27    21   ar
    36    29    30    1
@<TRIPOS>MOLECULE
*****
 33 36 0 0 0
SMALL
GASTEIGER

@<TRIPOS>ATOM
      1 C           6.8178   -0.2467   35.2751 C.3     1  UNL1        0.0952
      2 C           5.4680   -0.4525   34.6542 C.2     1  UNL1        0.2302
      3 O           4.2953   -0.8209   35.5138 O.2     1  UNL1       -0.2745
      4 N           5.2909   -0.2900   33.1735 N.am    1  UNL1       -0.2515
      5 C           6.4637    0.0784   32.3139 C.2     1  UNL1        0.0695
      6 C           6.2866    0.2410   30.8333 C.2     1  UNL1        0.0366
      7 C           4.9368    0.0352   30.2123 C.ar    1  UNL1        0.0993
      8 N           4.7597    0.1978   28.7317 N.ar    1  UNL1       -0.2265
      9 C           3.4099   -0.0080   28.1107 C.ar    1  UNL1        0.1634
     10 C           2.2371   -0.3764   28.9704 C.ar    1  UNL1        0.1600
     11 N           2.4142   -0.5390   30.4510 N.ar    1  UNL1       -0.2291
     12 C           3.7641   -0.3332   31.0720 C.ar    1  UNL1        0.0985
     13 C           3.9412   -0.4957   32.5526 C.3     1  UNL1        0.1454
     14 N           3.2328    0.1546   26.6301 N.pl3   1  UNL1       -0.2882
     15 C           2.7133    1.4474   26.0744 C.3     1  UNL1        0.1096
     16 C           2.5362    1.6099   24.5938 C.3     1  UNL1        0.0941
     17 N           2.8787    0.4797   23.6689 N.3     1  UNL1       -0.2659
     18 C           3.3982   -0.8130   24.2246 C.3     1  UNL1        0.0941
     19 C           3.5753   -0.9756   25.7052 C.3     1  UNL1        0.1096
     20 C           2.7016    0.6423   22.1883 C.3     1  UNL1        0.1015
     21 C           3.3932   -0.2948   21.2429 C.ar    1  UNL1        0.0215
     22 C           4.8914   -0.3233   21.1771 C.ar    1  UNL1        0.0016
     23 C           5.5830   -1.2603   20.2317 C.ar    1  UNL1        0.0295
     24 C           4.7762   -2.1689   19.3521 C.ar    1  UNL1        0.1424
     25 F           5.4677   -3.1059   18.4067 F       1  UNL1       -0.2041
     26 C           3.2779   -2.1403   19.4179 C.ar    1  UNL1        0.0590
     27 C           2.5864   -1.2033   20.3632 C.ar    1  UNL1        0.1397
     28 F           1.0880   -1.1748   20.4291 F       1  UNL1       -0.2044
     29 N           0.8873   -0.5822   28.3494 N.pl3   1  UNL1       -0.3175
     30 H           0.7388   -1.3350   27.7326 H       1  UNL1        0.1482
     31 C          -0.2363    0.3591   28.6682 C.3     1  UNL1        0.0706
     32 C          -0.0208    1.8409   28.5817 C.3     1  UNL1        0.0212
     33 C          -1.5755   -0.1817   29.0734 C.3     1  UNL1        0.0212
@<TRIPOS>BOND
     1     1     2    1
     2     2     3    2
     3     2     4   am
     4     4     5    1
     5     5     6    2
     6     6     7    1
     7     7     8   ar
     8     8     9   ar
     9     9    14    1
    10    14    15    1
    11    15    16    1
    12    16    17    1
    13    17    20    1
    14    20    21    1
    15    21    22   ar
    16    22    23   ar
    17    23    24   ar
    18    24    25    1
    19    24    26   ar
    20    26    27   ar
    21    27    28    1
    22    17    18    1
    23    18    19    1
    24     9    10   ar
    25    10    29    1
    26    29    31    1
    27    31    32    1
    28    31    33    1
    29    10    11   ar
    30    11    12   ar
    31    12    13    1
    32    13     4    1
    33    12     7   ar
    34    19    14    1
    35    27    21   ar
    36    29    30    1
@<TRIPOS>MOLECULE
*****
 33 36 0 0 0
SMALL
GASTEIGER

@<TRIPOS>ATOM
      1 C          -2.3076    4.6365   21.9510 C.3     1  UNL1        0.0952
      2 C          -1.8499    3.5559   21.0167 C.2     1  UNL1        0.2302
      3 O          -2.5756    3.3249   19.7244 O.2     1  UNL1       -0.2745
      4 N          -0.6666    2.7065   21.3747 N.am    1  UNL1       -0.2515
      5 C           0.0591    2.9376   22.6670 C.2     1  UNL1        0.0695
      6 C           1.2424    2.0881   23.0249 C.2     1  UNL1        0.0366
      7 C           1.7001    1.0076   22.0907 C.ar    1  UNL1        0.0993
      8 N           2.8834    0.1581   22.4487 N.ar    1  UNL1       -0.2265
      9 C           3.3411   -0.9224   21.5144 C.ar    1  UNL1        0.1634
     10 C           2.6154   -1.1535   20.2220 C.ar    1  UNL1        0.1600
     11 N           1.4321   -0.3041   19.8640 N.ar    1  UNL1       -0.2291
     12 C           0.9744    0.7765   20.7984 C.ar    1  UNL1        0.0985
     13 C          -0.2089    1.6260   20.4404 C.3     1  UNL1        0.1454
     14 N           4.5244   -1.7719   21.8724 N.pl3   1  UNL1       -0.2882
     15 C           4.3180   -3.1270   22.4816 C.3     1  UNL1        0.1096
     16 C           5.5014   -3.9764   22.8396 C.3     1  UNL1        0.0941
     17 N           6.8911   -3.4708   22.5884 N.3     1  UNL1       -0.2659
     18 C           7.0974   -2.1157   21.9791 C.3     1  UNL1        0.0941
     19 C           5.9141   -1.2662   21.6212 C.3     1  UNL1        0.1096
     20 C           8.0744   -4.3202   22.9463 C.3     1  UNL1        0.1015
     21 C           7.9732   -5.3140   24.0654 C.ar    1  UNL1        0.0215
     22 C           7.5371   -4.8662   25.4289 C.ar    1  UNL1        0.0016
     23 C           7.4359   -5.8600   26.5480 C.ar    1  UNL1        0.0295
     24 C           7.7708   -7.3015   26.3035 C.ar    1  UNL1        0.1424
     25 F           7.6696   -8.2953   27.4225 F       1  UNL1       -0.2041
     26 C           8.2069   -7.7493   24.9399 C.ar    1  UNL1        0.0590
     27 C           8.3081   -6.7555   23.8209 C.ar    1  UNL1        0.1397
     28 F           8.7442   -7.2033   22.4572 F       1  UNL1       -0.2044
     29 N           3.0731   -2.2341   19.2878 N.pl3   1  UNL1       -0.3175
     30 H           2.6800   -3.1347   19.3466 H       1  UNL1        0.1482
     31 C           4.1299   -1.9423   18.2638 C.3     1  UNL1        0.0706
     32 C           3.9209   -0.8459   17.2618 C.3     1  UNL1        0.0212
     33 C           5.3955   -2.7471   18.2421 C.3     1  UNL1        0.0212
@<TRIPOS>BOND
     1     1     2    1
     2     2     3    2
     3     2     4   am
     4     4     5    1
     5     5     6    2
     6     6     7    1
     7     7     8   ar
     8     8     9   ar
     9     9    14    1
    10    14    15    1
    11    15    16    1
    12    16    17    1
    13    17    20    1
    14    20    21    1
    15    21    22   ar
    16    22    23   ar
    17    23    24   ar
    18    24    25    1
    19    24    26   ar
    20    26    27   ar
    21    27    28    1
    22    17    18    1
    23    18    19    1
    24     9    10   ar
    25    10    29    1
    26    29    31    1
    27    31    32    1
    28    31    33    1
    29    10    11   ar
    30    11    12   ar
    31    12    13    1
    32    13     4    1
    33    12     7   ar
    34    19    14    1
    35    27    21   ar
    36    29    30    1
@<TRIPOS>MOLECULE
*****
 33 36 0 0 0
SMALL
GASTEIGER

@<TRIPOS>ATOM
      1 C          -6.7958    7.1259   26.2617 C.3     1  UNL1        0.0952
      2 C          -6.0120    6.0260   26.9142 C.2     1  UNL1        0.2302
      3 O          -6.4074    5.5273   28.2725 O.2     1  UNL1       -0.2745
      4 N          -4.8327    5.4249   26.2086 N.am    1  UNL1       -0.2515
      5 C          -4.4372    5.9237   24.8504 C.2     1  UNL1        0.0695
      6 C          -3.2579    5.3225   24.1447 C.2     1  UNL1        0.0366
      7 C          -2.4741    4.2227   24.7973 C.ar    1  UNL1        0.0993
      8 N          -1.2948    3.6215   24.0916 N.ar    1  UNL1       -0.2265
      9 C          -0.5110    2.5217   24.7442 C.ar    1  UNL1        0.1634
     10 C          -0.9065    2.0229   26.1025 C.ar    1  UNL1        0.1600
     11 N          -2.0858    2.6240   26.8082 N.ar    1  UNL1       -0.2291
     12 C          -2.8696    3.7239   26.1555 C.ar    1  UNL1        0.0985
     13 C          -4.0489    4.3250   26.8612 C.3     1  UNL1        0.1454
     14 N           0.6682    1.9205   24.0386 N.pl3   1  UNL1       -0.2882
     15 C           2.0123    1.9041   24.7044 C.3     1  UNL1        0.1096
     16 C           3.1916    1.3030   23.9988 C.3     1  UNL1        0.0941
     17 N           3.0268    0.7183   22.6273 N.3     1  UNL1       -0.2659
     18 C           1.6828    0.7347   21.9615 C.3     1  UNL1        0.0941
     19 C           0.5035    1.3358   22.6671 C.3     1  UNL1        0.1096
     20 C           4.2061    0.1171   21.9216 C.3     1  UNL1        0.1015
     21 C           4.1335   -1.2888   21.4037 C.ar    1  UNL1        0.0215
     22 C           3.8284   -1.5403   19.9568 C.ar    1  UNL1        0.0016
     23 C           3.7558   -2.9462   19.4389 C.ar    1  UNL1        0.0295
     24 C           3.9883   -4.1006   20.3680 C.ar    1  UNL1        0.1424
     25 F           3.9157   -5.5065   19.8502 F       1  UNL1       -0.2041
     26 C           4.2934   -3.8491   21.8150 C.ar    1  UNL1        0.0590
     27 C           4.3660   -2.4432   22.3328 C.ar    1  UNL1        0.1397
     28 F           4.6711   -2.1917   23.7798 F       1  UNL1       -0.2044
     29 N          -0.1227    0.9230   26.7551 N.pl3   1  UNL1       -0.3175
     30 H           0.5149    0.3918   26.2254 H       1  UNL1        0.1482
     31 C          -0.3104    0.6324   28.2147 C.3     1  UNL1        0.0706
     32 C           0.3420    1.5074   29.2436 C.3     1  UNL1        0.0212
     33 C          -1.1505   -0.5333   28.6453 C.3     1  UNL1        0.0212
@<TRIPOS>BOND
     1     1     2    1
     2     2     3    2
     3     2     4   am
     4     4     5    1
     5     5     6    2
     6     6     7    1
     7     7     8   ar
     8     8     9   ar
     9     9    14    1
    10    14    15    1
    11    15    16    1
    12    16    17    1
    13    17    20    1
    14    20    21    1
    15    21    22   ar
    16    22    23   ar
    17    23    24   ar
    18    24    25    1
    19    24    26   ar
    20    26    27   ar
    21    27    28    1
    22    17    18    1
    23    18    19    1
    24     9    10   ar
    25    10    29    1
    26    29    31    1
    27    31    32    1
    28    31    33    1
    29    10    11   ar
    30    11    12   ar
    31    12    13    1
    32    13     4    1
    33    12     7   ar
    34    19    14    1
    35    27    21   ar
    36    29    30    1
@<TRIPOS>MOLECULE
*****
 33 36 0 0 0
SMALL
GASTEIGER

@<TRIPOS>ATOM
      1 C           2.2143    3.1055   38.9551 C.3     1  UNL1        0.0952
      2 C           2.2192    3.0315   37.4570 C.2     1  UNL1        0.2302
      3 O           1.3332    3.9409   36.6583 O.2     1  UNL1       -0.2745
      4 N           3.1100    2.0480   36.7575 N.am    1  UNL1       -0.2515
      5 C           3.9960    1.1385   37.5562 C.2     1  UNL1        0.0695
      6 C           4.8868    0.1551   36.8567 C.2     1  UNL1        0.0366
      7 C           4.8916    0.0810   35.3586 C.ar    1  UNL1        0.0993
      8 N           5.7824   -0.9024   34.6591 N.ar    1  UNL1       -0.2265
      9 C           5.7873   -0.9764   33.1610 C.ar    1  UNL1        0.1634
     10 C           4.9013   -0.0670   32.3623 C.ar    1  UNL1        0.1600
     11 N           4.0105    0.9165   33.0617 N.ar    1  UNL1       -0.2291
     12 C           4.0057    0.9905   34.5599 C.ar    1  UNL1        0.0985
     13 C           3.1148    1.9740   35.2594 C.3     1  UNL1        0.1454
     14 N           6.6781   -1.9599   32.4616 N.pl3   1  UNL1       -0.2882
     15 C           6.2026   -3.3617   32.2185 C.3     1  UNL1        0.1096
     16 C           7.0934   -4.3451   31.5190 C.3     1  UNL1        0.0941
     17 N           8.4597   -3.9268   31.0626 N.3     1  UNL1       -0.2659
     18 C           8.9352   -2.5252   31.3057 C.3     1  UNL1        0.0941
     19 C           8.0444   -1.5417   32.0052 C.3     1  UNL1        0.1096
     20 C           9.3505   -4.9103   30.3632 C.3     1  UNL1        0.1015
     21 C           8.8301   -5.6954   29.1957 C.ar    1  UNL1        0.0215
     22 C           8.9810   -7.1875   29.1681 C.ar    1  UNL1        0.0016
     23 C           8.4605   -7.9725   28.0007 C.ar    1  UNL1        0.0295
     24 C           7.7891   -7.2654   26.8609 C.ar    1  UNL1        0.1424
     25 F           7.2686   -8.0503   25.6935 F       1  UNL1       -0.2041
     26 C           7.6382   -5.7732   26.8885 C.ar    1  UNL1        0.0590
     27 C           8.1587   -4.9882   28.0559 C.ar    1  UNL1        0.1397
     28 F           8.0077   -3.4960   28.0836 F       1  UNL1       -0.2044
     29 N           4.9061   -0.1410   30.8641 N.pl3   1  UNL1       -0.3175
     30 H           5.7258   -0.4050   30.3870 H       1  UNL1        0.1482
     31 C           3.6621    0.1872   30.0929 C.3     1  UNL1        0.0706
     32 C           3.6626    1.3276   29.1185 C.3     1  UNL1        0.0212
     33 C           2.4175   -0.6250   30.2962 C.3     1  UNL1        0.0212
@<TRIPOS>BOND
     1     1     2    1
     2     2     3    2
     3     2     4   am
     4     4     5    1
     5     5     6    2
     6     6     7    1
     7     7     8   ar
     8     8     9   ar
     9     9    14    1
    10    14    15    1
    11    15    16    1
    12    16    17    1
    13    17    20    1
    14    20    21    1
    15    21    22   ar
    16    22    23   ar
    17    23    24   ar
    18    24    25    1
    19    24    26   ar
    20    26    27   ar
    21    27    28    1
    22    17    18    1
    23    18    19    1
    24     9    10   ar
    25    10    29    1
    26    29    31    1
    27    31    32    1
    28    31    33    1
    29    10    11   ar
    30    11    12   ar
    31    12    13    1
    32    13     4    1
    33    12     7   ar
    34    19    14    1
    35    27    21   ar
    36    29    30    1
@<TRIPOS>MOLECULE
*****
 33 36 0 0 0
SMALL
GASTEIGER

@<TRIPOS>ATOM
      1 C           4.2884    1.8904   38.0173 C.3     1  UNL1        0.0952
      2 C           4.4730    1.0052   36.8205 C.2     1  UNL1        0.2302
      3 O           5.3966   -0.1743   36.8955 O.2     1  UNL1       -0.2745
      4 N           3.7340    1.2995   35.5488 N.am    1  UNL1       -0.2515
      5 C           2.8104    2.4790   35.4738 C.2     1  UNL1        0.0695
      6 C           2.0715    2.7733   34.2020 C.2     1  UNL1        0.0366
      7 C           2.2561    1.8880   33.0053 C.ar    1  UNL1        0.0993
      8 N           1.5171    2.1823   31.7336 N.ar    1  UNL1       -0.2265
      9 C           1.7018    1.2971   30.5368 C.ar    1  UNL1        0.1634
     10 C           2.6254    0.1175   30.6118 C.ar    1  UNL1        0.1600
     11 N           3.3643   -0.1768   31.8835 N.ar    1  UNL1       -0.2291
     12 C           3.1797    0.7085   33.0803 C.ar    1  UNL1        0.0985
     13 C           3.9186    0.4142   34.3521 C.3     1  UNL1        0.1454
     14 N           0.9628    1.5913   29.2651 N.pl3   1  UNL1       -0.2882
     15 C           1.4107    2.7172   28.3807 C.3     1  UNL1        0.1096
     16 C           0.6717    3.0114   27.1090 C.3     1  UNL1        0.0941
     17 N          -0.5151    2.1799   26.7216 N.3     1  UNL1       -0.2659
     18 C          -0.9630    1.0542   27.6059 C.3     1  UNL1        0.0941
     19 C          -0.2240    0.7599   28.8777 C.3     1  UNL1        0.1096
     20 C          -1.2541    2.4742   25.4498 C.3     1  UNL1        0.1015
     21 C          -2.5561    3.2179   25.4939 C.ar    1  UNL1        0.0215
     22 C          -3.1613    3.5929   26.8141 C.ar    1  UNL1        0.0016
     23 C          -4.4633    4.3365   26.8581 C.ar    1  UNL1        0.0295
     24 C          -5.1600    4.7051   25.5818 C.ar    1  UNL1        0.1424
     25 F          -6.4619    5.4487   25.6258 F       1  UNL1       -0.2041
     26 C          -4.5547    4.3301   24.2616 C.ar    1  UNL1        0.0590
     27 C          -3.2527    3.5865   24.2176 C.ar    1  UNL1        0.1397
     28 F          -2.6474    3.2114   22.8974 F       1  UNL1       -0.2044
     29 N           2.8100   -0.7678   29.4151 N.pl3   1  UNL1       -0.3175
     30 H           2.1683   -1.4924   29.2351 H       1  UNL1        0.1482
     31 C           3.9723   -0.5490   28.4924 C.3     1  UNL1        0.0706
     32 C           4.3599   -1.6131   27.5089 C.3     1  UNL1        0.0212
     33 C           4.7471    0.7340   28.5534 C.3     1  UNL1        0.0212
@<TRIPOS>BOND
     1     1     2    1
     2     2     3    2
     3     2     4   am
     4     4     5    1
     5     5     6    2
     6     6     7    1
     7     7     8   ar
     8     8     9   ar
     9     9    14    1
    10    14    15    1
    11    15    16    1
    12    16    17    1
    13    17    20    1
    14    20    21    1
    15    21    22   ar
    16    22    23   ar
    17    23    24   ar
    18    24    25    1
    19    24    26   ar
    20    26    27   ar
    21    27    28    1
    22    17    18    1
    23    18    19    1
    24     9    10   ar
    25    10    29    1
    26    29    31    1
    27    31    32    1
    28    31    33    1
    29    10    11   ar
    30    11    12   ar
    31    12    13    1
    32    13     4    1
    33    12     7   ar
    34    19    14    1
    35    27    21   ar
    36    29    30    1
@<TRIPOS>MOLECULE
*****
 33 36 0 0 0
SMALL
GASTEIGER

@<TRIPOS>ATOM
      1 C          -3.2922    4.1727   26.3271 C.3     1  UNL1        0.0952
      2 C          -2.5097    3.9958   25.0597 C.2     1  UNL1        0.2302
      3 O          -2.8868    4.7695   23.8313 O.2     1  UNL1       -0.2745
      4 N          -1.3500    3.0451   25.0208 N.am    1  UNL1       -0.2515
      5 C          -0.9729    2.2714   26.2492 C.2     1  UNL1        0.0695
      6 C           0.1867    1.3207   26.2103 C.2     1  UNL1        0.0366
      7 C           0.9692    1.1438   24.9429 C.ar    1  UNL1        0.0993
      8 N           2.1289    0.1932   24.9039 N.ar    1  UNL1       -0.2265
      9 C           2.9114    0.0163   23.6365 C.ar    1  UNL1        0.1634
     10 C           2.5343    0.7900   22.4080 C.ar    1  UNL1        0.1600
     11 N           1.3747    1.7407   22.4470 N.ar    1  UNL1       -0.2291
     12 C           0.5921    1.9176   23.7144 C.ar    1  UNL1        0.0985
     13 C          -0.5675    2.8682   23.7534 C.3     1  UNL1        0.1454
     14 N           4.0710   -0.9344   23.5976 N.pl3   1  UNL1       -0.2882
     15 C           3.9359   -2.2539   22.8969 C.3     1  UNL1        0.1096
     16 C           5.0956   -3.2045   22.8580 C.3     1  UNL1        0.0941
     17 N           6.3903   -2.8357   23.5196 N.3     1  UNL1       -0.2659
     18 C           6.5253   -1.5163   24.2202 C.3     1  UNL1        0.0941
     19 C           5.3657   -0.5656   24.2592 C.3     1  UNL1        0.1096
     20 C           7.5499   -3.7863   23.4807 C.3     1  UNL1        0.1015
     21 C           7.5369   -5.0206   24.3331 C.ar    1  UNL1        0.0215
     22 C           6.9411   -4.9756   25.7089 C.ar    1  UNL1        0.0016
     23 C           6.9281   -6.2099   26.5614 C.ar    1  UNL1        0.0295
     24 C           7.5108   -7.4891   26.0378 C.ar    1  UNL1        0.1424
     25 F           7.4978   -8.7233   26.8901 F       1  UNL1       -0.2041
     26 C           8.1066   -7.5340   24.6619 C.ar    1  UNL1        0.0590
     27 C           8.1196   -6.2998   23.8096 C.ar    1  UNL1        0.1397
     28 F           8.7153   -6.3447   22.4336 F       1  UNL1       -0.2044
     29 N           3.3168    0.6131   21.1406 N.pl3   1  UNL1       -0.3175
     30 H           4.1124    1.1678   20.9718 H       1  UNL1        0.1482
     31 C           2.8871   -0.4091   20.1303 C.3     1  UNL1        0.0706
     32 C           3.8845   -0.9711   19.1612 C.3     1  UNL1        0.0212
     33 C           1.4601   -0.8692   20.0893 C.3     1  UNL1        0.0212
@<TRIPOS>BOND
     1     1     2    1
     2     2     3    2
     3     2     4   am
     4     4     5    1
     5     5     6    2
     6     6     7    1
     7     7     8   ar
     8     8     9   ar
     9     9    14    1
    10    14    15    1
    11    15    16    1
    12    16    17    1
    13    17    20    1
    14    20    21    1
    15    21    22   ar
    16    22    23   ar
    17    23    24   ar
    18    24    25    1
    19    24    26   ar
    20    26    27   ar
    21    27    28    1
    22    17    18    1
    23    18    19    1
    24     9    10   ar
    25    10    29    1
    26    29    31    1
    27    31    32    1
    28    31    33    1
    29    10    11   ar
    30    11    12   ar
    31    12    13    1
    32    13     4    1
    33    12     7   ar
    34    19    14    1
    35    27    21   ar
    36    29    30    1
@<TRIPOS>MOLECULE
*****
 33 36 0 0 0
SMALL
GASTEIGER

@<TRIPOS>ATOM
      1 C           4.0307   -2.8151   19.1461 C.3     1  UNL1        0.0952
      2 C           3.3228   -1.7110   19.8740 C.2     1  UNL1        0.2302
      3 O           2.4802   -0.7307   19.1130 O.2     1  UNL1       -0.2745
      4 N           3.4574   -1.5873   21.3628 N.am    1  UNL1       -0.2515
      5 C           4.2999   -2.5676   22.1237 C.2     1  UNL1        0.0695
      6 C           4.4346   -2.4438   23.6125 C.2     1  UNL1        0.0366
      7 C           3.7267   -1.3397   24.3404 C.ar    1  UNL1        0.0993
      8 N           3.8613   -1.2159   25.8292 N.ar    1  UNL1       -0.2265
      9 C           3.1534   -0.1119   26.5571 C.ar    1  UNL1        0.1634
     10 C           2.3108    0.8685   25.7961 C.ar    1  UNL1        0.1600
     11 N           2.1762    0.7447   24.3073 N.ar    1  UNL1       -0.2291
     12 C           2.8841   -0.3594   23.5794 C.ar    1  UNL1        0.0985
     13 C           2.7495   -0.4832   22.0906 C.3     1  UNL1        0.1454
     14 N           3.2881    0.0119   28.0459 N.pl3   1  UNL1       -0.2882
     15 C           2.2914   -0.6549   28.9471 C.3     1  UNL1        0.1096
     16 C           2.4260   -0.5311   30.4359 C.3     1  UNL1        0.0941
     17 N           3.5573    0.2595   31.0235 N.3     1  UNL1       -0.2659
     18 C           4.5539    0.9262   30.1223 C.3     1  UNL1        0.0941
     19 C           4.4193    0.8024   28.6335 C.3     1  UNL1        0.1096
     20 C           3.6920    0.3832   32.5123 C.3     1  UNL1        0.1015
     21 C           3.0234    1.5154   33.2343 C.ar    1  UNL1        0.0215
     22 C           2.0265    2.3773   32.5178 C.ar    1  UNL1        0.0016
     23 C           1.3579    3.5095   33.2397 C.ar    1  UNL1        0.0295
     24 C           1.6862    3.7798   34.6782 C.ar    1  UNL1        0.1424
     25 F           1.0177    4.9119   35.4002 F       1  UNL1       -0.2041
     26 C           2.6831    2.9178   35.3947 C.ar    1  UNL1        0.0590
     27 C           3.3517    1.7857   34.6727 C.ar    1  UNL1        0.1397
     28 F           4.3486    0.9237   35.3892 F       1  UNL1       -0.2044
     29 N           1.6029    1.9726   26.5240 N.pl3   1  UNL1       -0.3175
     30 H           2.1118    2.7443   26.8628 H       1  UNL1        0.1482
     31 C           0.1196    1.9010   26.7357 C.3     1  UNL1        0.0706
     32 C          -0.8133    2.0856   25.5757 C.3     1  UNL1        0.0212
     33 C          -0.4307    1.6447   28.1074 C.3     1  UNL1        0.0212
@<TRIPOS>BOND
     1     1     2    1
     2     2     3    2
     3     2     4   am
     4     4     5    1
     5     5     6    2
     6     6     7    1
     7     7     8   ar
     8     8     9   ar
     9     9    14    1
    10    14    15    1
    11    15    16    1
    12    16    17    1
    13    17    20    1
    14    20    21    1
    15    21    22   ar
    16    22    23   ar
    17    23    24   ar
    18    24    25    1
    19    24    26   ar
    20    26    27   ar
    21    27    28    1
    22    17    18    1
    23    18    19    1
    24     9    10   ar
    25    10    29    1
    26    29    31    1
    27    31    32    1
    28    31    33    1
    29    10    11   ar
    30    11    12   ar
    31    12    13    1
    32    13     4    1
    33    12     7   ar
    34    19    14    1
    35    27    21   ar
    36    29    30    1
