@<TRIPOS>MOLECULE
*****
 32 35 0 0 0
SMALL
GASTEIGER

@<TRIPOS>ATOM
      1 N           0.0030    3.1989   20.0754 N.am    1  UNL1       -0.2677
      2 C           0.6006    1.8401   20.2910 C.2     1  UNL1        0.2316
      3 O          -0.2921    0.6497   20.4806 O.2     1  UNL1       -0.2744
      4 H           0.5890    3.9802   19.9509 H       1  UNL1        0.1563
      5 N          -3.8302    3.2911   20.6783 N.ar    1  UNL1       -0.2421
      6 C          -3.7310    3.9619   19.3403 C.ar    1  UNL1        0.0985
      7 C          -2.2829    4.0090   18.9516 C.ar    1  UNL1        0.0564
      8 C          -1.4872    3.3673   20.0494 C.ar    1  UNL1        0.1555
      9 N          -2.4434    2.9236   21.1165 N.ar    1  UNL1       -0.1536
     10 C          -5.0941    3.0331   21.4437 C.3     1  UNL1        0.1728
     11 C          -5.7394    4.9862   25.4461 C.ar    1  UNL1        0.0875
     12 C          -4.7952    3.8275   25.3205 C.ar    1  UNL1        0.0131
     13 C          -4.5801    3.1765   23.9864 C.ar    1  UNL1        0.0174
     14 C          -5.3092    3.6841   22.7778 C.ar    1  UNL1        0.0837
     15 N          -6.2534    4.8429   22.9034 N.ar    1  UNL1       -0.2454
     16 C          -6.4685    5.4939   24.2375 C.ar    1  UNL1        0.1087
     17 N          -6.1695    6.2883   28.1143 N.1     1  UNL1       -0.1908
     18 C          -5.9544    5.6373   26.7802 C.1     1  UNL1        0.1020
     19 C           2.0909    1.6716   20.3170 C.3     1  UNL1        0.1117
     20 C           2.6988    0.3286   20.0404 C.ar    1  UNL1       -0.0131
     21 C           3.0018   -0.0813   18.6297 C.ar    1  UNL1       -0.0041
     22 C           3.6098   -1.4245   18.3530 C.ar    1  UNL1       -0.0043
     23 C           3.9147   -2.3576   19.4871 C.ar    1  UNL1       -0.0149
     24 C           3.6117   -1.9477   20.8979 C.ar    1  UNL1       -0.0043
     25 C           3.0038   -0.6046   21.1745 C.ar    1  UNL1       -0.0041
     26 C           4.5226   -3.7007   19.2104 C.3     1  UNL1        0.1063
     27 C           4.6254   -5.1611   18.8839 C.3     1  UNL1        0.0129
     28 C           3.2793   -4.5050   18.9708 C.3     1  UNL1        0.0129
     29 C           5.9770   -3.3630   19.3540 C.3     1  UNL1        0.4006
     30 F           7.4314   -3.0252   19.4976 F       1  UNL1       -0.1697
     31 F           6.0108   -2.9021   17.9270 F       1  UNL1       -0.1697
     32 F           5.9431   -3.8239   20.7810 F       1  UNL1       -0.1697
@<TRIPOS>BOND
     1    17    18    3
     2    18    11    1
     3    11    12   ar
     4    12    13   ar
     5    13    14   ar
     6    14    10    1
     7    10     5    1
     8     5     6   ar
     9     6     7   ar
    10     7     8   ar
    11     8     1    1
    12     1     2   am
    13     2     3    2
    14     2    19    1
    15    19    20    1
    16    20    21   ar
    17    21    22   ar
    18    22    23   ar
    19    23    26    1
    20    26    29    1
    21    29    30    1
    22    29    31    1
    23    29    32    1
    24    26    27    1
    25    27    28    1
    26    23    24   ar
    27    24    25   ar
    28     8     9   ar
    29    14    15   ar
    30    15    16   ar
    31    16    11   ar
    32     9     5   ar
    33    25    20   ar
    34    28    26    1
    35     1     4    1
@<TRIPOS>MOLECULE
*****
 32 35 0 0 0
SMALL
GASTEIGER

@<TRIPOS>ATOM
      1 N           7.2284   -6.7577   26.8266 N.am    1  UNL1       -0.2677
      2 C           7.6302   -6.0320   25.5768 C.2     1  UNL1        0.2316
      3 O           8.6492   -6.6335   24.6550 O.2     1  UNL1       -0.2744
      4 H           6.5596   -6.3628   27.4315 H       1  UNL1        0.1563
      5 N           8.1146  -10.4413   27.6699 N.ar    1  UNL1       -0.2421
      6 C           9.4765   -9.8130   27.6490 C.ar    1  UNL1        0.0985
      7 C           9.3104   -8.3565   27.3306 C.ar    1  UNL1        0.0564
      8 C           7.8457   -8.0847   27.1546 C.ar    1  UNL1        0.1555
      9 N           7.1067   -9.3731   27.3643 N.ar    1  UNL1       -0.1536
     10 C           7.8134  -11.8842   27.9475 C.3     1  UNL1        0.1728
     11 C           3.5551  -13.3388   27.9248 C.ar    1  UNL1        0.0875
     12 C           4.0772  -12.5654   29.0992 C.ar    1  UNL1        0.0131
     13 C           5.4967  -12.0806   29.1068 C.ar    1  UNL1        0.0174
     14 C           6.3940  -12.3691   27.9400 C.ar    1  UNL1        0.0837
     15 N           5.8718  -13.1424   26.7656 N.ar    1  UNL1       -0.2454
     16 C           4.4524  -13.6273   26.7580 C.ar    1  UNL1        0.1087
     17 N           0.7161  -14.3085   27.9097 N.1     1  UNL1       -0.1908
     18 C           2.1356  -13.8236   27.9173 C.1     1  UNL1        0.1020
     19 C           7.0129   -4.7049   25.2487 C.3     1  UNL1        0.1117
     20 C           6.6874   -4.3604   23.8256 C.ar    1  UNL1       -0.0131
     21 C           7.7034   -4.5917   22.7467 C.ar    1  UNL1       -0.0041
     22 C           7.3778   -4.2472   21.3234 C.ar    1  UNL1       -0.0043
     23 C           6.0362   -3.6714   20.9793 C.ar    1  UNL1       -0.0149
     24 C           5.0202   -3.4401   22.0582 C.ar    1  UNL1       -0.0043
     25 C           5.3457   -3.7846   23.4814 C.ar    1  UNL1       -0.0041
     26 C           5.7107   -3.3270   19.5561 C.3     1  UNL1        0.1063
     27 C           5.8289   -2.7157   18.1914 C.3     1  UNL1        0.0129
     28 C           6.8751   -2.4393   19.2301 C.3     1  UNL1        0.0129
     29 C           4.4333   -4.0949   19.3878 C.3     1  UNL1        0.4006
     30 F           3.1557   -4.8628   19.2195 F       1  UNL1       -0.1697
     31 F           5.2181   -5.3595   19.2011 F       1  UNL1       -0.1697
     32 F           3.6485   -2.8303   19.5745 F       1  UNL1       -0.1697
@<TRIPOS>BOND
     1    17    18    3
     2    18    11    1
     3    11    12   ar
     4    12    13   ar
     5    13    14   ar
     6    14    10    1
     7    10     5    1
     8     5     6   ar
     9     6     7   ar
    10     7     8   ar
    11     8     1    1
    12     1     2   am
    13     2     3    2
    14     2    19    1
    15    19    20    1
    16    20    21   ar
    17    21    22   ar
    18    22    23   ar
    19    23    26    1
    20    26    29    1
    21    29    30    1
    22    29    31    1
    23    29    32    1
    24    26    27    1
    25    27    28    1
    26    23    24   ar
    27    24    25   ar
    28     8     9   ar
    29    14    15   ar
    30    15    16   ar
    31    16    11   ar
    32     9     5   ar
    33    25    20   ar
    34    28    26    1
    35     1     4    1
@<TRIPOS>MOLECULE
*****
 32 35 0 0 0
SMALL
GASTEIGER

@<TRIPOS>ATOM
      1 N           7.6094   -9.1603   27.3341 N.am    1  UNL1       -0.2677
      2 C           6.3956  -10.0397   27.2759 C.2     1  UNL1        0.2316
      3 O           5.1678   -9.5763   26.5496 O.2     1  UNL1       -0.2744
      4 H           8.4152   -9.4645   27.8109 H       1  UNL1        0.1563
      5 N           7.8490   -6.0595   25.0119 N.ar    1  UNL1       -0.2421
      6 C           7.2985   -5.4425   26.2634 C.ar    1  UNL1        0.0985
      7 C           7.1417   -6.5290   27.2857 C.ar    1  UNL1        0.0564
      8 C           7.5953   -7.8175   26.6660 C.ar    1  UNL1        0.1555
      9 N           8.0325   -7.5274   25.2607 N.ar    1  UNL1       -0.1536
     10 C           8.1613   -5.3358   23.7357 C.3     1  UNL1        0.1728
     11 C           4.9294   -3.0480   21.5977 C.ar    1  UNL1        0.0875
     12 C           4.9542   -3.0871   23.0969 C.ar    1  UNL1        0.0131
     13 C           6.0315   -3.8497   23.8096 C.ar    1  UNL1        0.0174
     14 C           7.0840   -4.5732   23.0230 C.ar    1  UNL1        0.0837
     15 N           7.0593   -4.5340   21.5238 N.ar    1  UNL1       -0.2454
     16 C           5.9820   -3.7715   20.8111 C.ar    1  UNL1        0.1087
     17 N           2.7749   -1.5228   20.1723 N.1     1  UNL1       -0.1908
     18 C           3.8522   -2.2854   20.8850 C.1     1  UNL1        0.1020
     19 C           6.4096  -11.3826   27.9442 C.3     1  UNL1        0.1117
     20 C           5.1379  -12.1663   28.0794 C.ar    1  UNL1       -0.0131
     21 C           4.7338  -13.1316   27.0047 C.ar    1  UNL1       -0.0041
     22 C           3.4619  -13.9153   27.1401 C.ar    1  UNL1       -0.0043
     23 C           2.5943  -13.7338   28.3500 C.ar    1  UNL1       -0.0149
     24 C           2.9983  -12.7685   29.4247 C.ar    1  UNL1       -0.0043
     25 C           4.2701  -11.9848   29.2895 C.ar    1  UNL1       -0.0041
     26 C           1.3225  -14.5176   28.4853 C.3     1  UNL1        0.1063
     27 C           0.3897  -15.6905   28.5500 C.3     1  UNL1        0.0129
     28 C           1.8571  -15.9104   28.3293 C.3     1  UNL1        0.0129
     29 C           0.3462  -13.3970   28.6882 C.3     1  UNL1        0.4006
     30 F          -0.6301  -12.2764   28.8910 F       1  UNL1       -0.1697
     31 F           0.4913  -13.5398   30.1743 F       1  UNL1       -0.1697
     32 F           0.2011  -13.2543   27.2020 F       1  UNL1       -0.1697
@<TRIPOS>BOND
     1    17    18    3
     2    18    11    1
     3    11    12   ar
     4    12    13   ar
     5    13    14   ar
     6    14    10    1
     7    10     5    1
     8     5     6   ar
     9     6     7   ar
    10     7     8   ar
    11     8     1    1
    12     1     2   am
    13     2     3    2
    14     2    19    1
    15    19    20    1
    16    20    21   ar
    17    21    22   ar
    18    22    23   ar
    19    23    26    1
    20    26    29    1
    21    29    30    1
    22    29    31    1
    23    29    32    1
    24    26    27    1
    25    27    28    1
    26    23    24   ar
    27    24    25   ar
    28     8     9   ar
    29    14    15   ar
    30    15    16   ar
    31    16    11   ar
    32     9     5   ar
    33    25    20   ar
    34    28    26    1
    35     1     4    1
@<TRIPOS>MOLECULE
*****
 32 35 0 0 0
SMALL
GASTEIGER

@<TRIPOS>ATOM
      1 N           7.6706   -9.2243   27.2842 N.am    1  UNL1       -0.2677
      2 C           6.4196  -10.0514   27.3119 C.2     1  UNL1        0.2316
      3 O           5.1915   -9.5781   26.5923 O.2     1  UNL1       -0.2744
      4 H           8.4766   -9.5350   27.7565 H       1  UNL1        0.1563
      5 N           7.4809   -5.5669   25.9988 N.ar    1  UNL1       -0.2421
      6 C           7.9775   -6.2787   24.7754 C.ar    1  UNL1        0.0985
      7 C           8.1090   -7.7355   25.1080 C.ar    1  UNL1        0.0564
      8 C           7.6937   -7.9240   26.5370 C.ar    1  UNL1        0.1555
      9 N           7.3055   -6.5838   27.0875 N.ar    1  UNL1       -0.1536
     10 C           7.2076   -4.0965   26.1134 C.3     1  UNL1        0.1728
     11 C           4.3317   -2.1145   23.2760 C.ar    1  UNL1        0.0875
     12 C           5.0581   -3.3591   22.8598 C.ar    1  UNL1        0.0131
     13 C           6.0168   -4.0197   23.8056 C.ar    1  UNL1        0.0174
     14 C           6.2490   -3.4358   25.1676 C.ar    1  UNL1        0.0837
     15 N           5.5225   -2.1912   25.5838 N.ar    1  UNL1       -0.2454
     16 C           4.5639   -1.5306   24.6379 C.ar    1  UNL1        0.1087
     17 N           2.4144   -0.7932   21.3843 N.1     1  UNL1       -0.1908
     18 C           3.3731   -1.4539   22.3301 C.1     1  UNL1        0.1020
     19 C           6.3965  -11.3518   28.0591 C.3     1  UNL1        0.1117
     20 C           5.1217  -12.1357   28.1611 C.ar    1  UNL1       -0.0131
     21 C           4.2142  -11.9417   29.3396 C.ar    1  UNL1       -0.0041
     22 C           2.9394  -12.7257   29.4415 C.ar    1  UNL1       -0.0043
     23 C           2.5722  -13.7035   28.3651 C.ar    1  UNL1       -0.0149
     24 C           3.4797  -13.8976   27.1866 C.ar    1  UNL1       -0.0043
     25 C           4.7545  -13.1137   27.0846 C.ar    1  UNL1       -0.0041
     26 C           1.2973  -14.4875   28.4671 C.3     1  UNL1        0.1063
     27 C           0.3627  -15.6602   28.5020 C.3     1  UNL1        0.0129
     28 C           1.8341  -15.8793   28.3092 C.3     1  UNL1        0.0129
     29 C           0.3179  -13.3680   28.6604 C.3     1  UNL1        0.4006
     30 F          -0.6616  -12.2486   28.8539 F       1  UNL1       -0.1697
     31 F           0.1646  -13.2453   27.1734 F       1  UNL1       -0.1697
     32 F           0.4712  -13.4908   30.1475 F       1  UNL1       -0.1697
@<TRIPOS>BOND
     1    17    18    3
     2    18    11    1
     3    11    12   ar
     4    12    13   ar
     5    13    14   ar
     6    14    10    1
     7    10     5    1
     8     5     6   ar
     9     6     7   ar
    10     7     8   ar
    11     8     1    1
    12     1     2   am
    13     2     3    2
    14     2    19    1
    15    19    20    1
    16    20    21   ar
    17    21    22   ar
    18    22    23   ar
    19    23    26    1
    20    26    29    1
    21    29    30    1
    22    29    31    1
    23    29    32    1
    24    26    27    1
    25    27    28    1
    26    23    24   ar
    27    24    25   ar
    28     8     9   ar
    29    14    15   ar
    30    15    16   ar
    31    16    11   ar
    32     9     5   ar
    33    25    20   ar
    34    28    26    1
    35     1     4    1
@<TRIPOS>MOLECULE
*****
 32 35 0 0 0
SMALL
GASTEIGER

@<TRIPOS>ATOM
      1 N           1.2298    2.8589   21.4655 N.am    1  UNL1       -0.2677
      2 C           0.4739    2.1566   20.3768 C.2     1  UNL1        0.2316
      3 O          -0.9903    1.8755   20.5415 O.2     1  UNL1       -0.2744
      4 H           2.1908    3.0434   21.3573 H       1  UNL1        0.1563
      5 N          -0.6335    3.2098   24.8522 N.ar    1  UNL1       -0.2421
      6 C          -0.5026    4.6470   24.4432 C.ar    1  UNL1        0.0985
      7 C           0.2114    4.6905   23.1247 C.ar    1  UNL1        0.0564
      8 C           0.5217    3.2802   22.7188 C.ar    1  UNL1        0.1555
      9 N          -0.0005    2.3650   23.7865 N.ar    1  UNL1       -0.1536
     10 C          -1.2834    2.7058   26.1066 C.3     1  UNL1        0.1728
     11 C           1.1479    0.4567   29.1530 C.ar    1  UNL1        0.0875
     12 C          -0.3325    0.2334   29.0618 C.ar    1  UNL1        0.0131
     13 C          -1.1430    0.9830   28.0463 C.ar    1  UNL1        0.0174
     14 C          -0.4730    1.9561   27.1221 C.ar    1  UNL1        0.0837
     15 N           1.0075    2.1794   27.2133 N.ar    1  UNL1       -0.2454
     16 C           1.8179    1.4297   28.2288 C.ar    1  UNL1        0.1087
     17 N           2.7688   -1.0427   31.1840 N.1     1  UNL1       -0.1908
     18 C           1.9583   -0.2930   30.1685 C.1     1  UNL1        0.1020
     19 C           1.1820    1.7354   19.1234 C.3     1  UNL1        0.1117
     20 C           1.9899    0.4716   19.1070 C.ar    1  UNL1       -0.0131
     21 C           2.9388    0.2027   17.9768 C.ar    1  UNL1       -0.0041
     22 C           3.7467   -1.0611   17.9605 C.ar    1  UNL1       -0.0043
     23 C           3.6056   -2.0559   19.0742 C.ar    1  UNL1       -0.0149
     24 C           2.6567   -1.7870   20.2043 C.ar    1  UNL1       -0.0043
     25 C           1.8488   -0.5232   20.2207 C.ar    1  UNL1       -0.0041
     26 C           4.4135   -3.3197   19.0577 C.3     1  UNL1        0.1063
     27 C           4.7407   -4.7830   19.0178 C.3     1  UNL1        0.0129
     28 C           3.3101   -4.3332   18.9843 C.3     1  UNL1        0.0129
     29 C           5.7974   -2.7451   19.1254 C.3     1  UNL1        0.4006
     30 F           7.1814   -2.1706   19.1930 F       1  UNL1       -0.1697
     31 F           5.5904   -2.4173   20.5744 F       1  UNL1       -0.1697
     32 F           6.0044   -3.0730   17.6764 F       1  UNL1       -0.1697
@<TRIPOS>BOND
     1    17    18    3
     2    18    11    1
     3    11    12   ar
     4    12    13   ar
     5    13    14   ar
     6    14    10    1
     7    10     5    1
     8     5     6   ar
     9     6     7   ar
    10     7     8   ar
    11     8     1    1
    12     1     2   am
    13     2     3    2
    14     2    19    1
    15    19    20    1
    16    20    21   ar
    17    21    22   ar
    18    22    23   ar
    19    23    26    1
    20    26    29    1
    21    29    30    1
    22    29    31    1
    23    29    32    1
    24    26    27    1
    25    27    28    1
    26    23    24   ar
    27    24    25   ar
    28     8     9   ar
    29    14    15   ar
    30    15    16   ar
    31    16    11   ar
    32     9     5   ar
    33    25    20   ar
    34    28    26    1
    35     1     4    1
@<TRIPOS>MOLECULE
*****
 32 35 0 0 0
SMALL
GASTEIGER

@<TRIPOS>ATOM
      1 N           7.8216   -9.5194   27.7639 N.am    1  UNL1       -0.2677
      2 C           6.5812  -10.3297   27.5297 C.2     1  UNL1        0.2316
      3 O           5.3964   -9.7083   26.8516 O.2     1  UNL1       -0.2744
      4 H           8.5993   -9.9273   28.2090 H       1  UNL1        0.1563
      5 N           8.0612   -5.6678   27.3481 N.ar    1  UNL1       -0.2421
      6 C           7.8639   -6.1012   25.9256 C.ar    1  UNL1        0.0985
      7 C           7.7501   -7.5968   25.9083 C.ar    1  UNL1        0.0564
      8 C           7.8771   -8.0878   27.3200 C.ar    1  UNL1        0.1555
      9 N           8.0694   -6.8956   28.2098 N.ar    1  UNL1       -0.1536
     10 C           8.2221   -4.2548   27.8250 C.3     1  UNL1        0.1728
     11 C           6.0339   -2.8577   31.5006 C.ar    1  UNL1        0.0875
     12 C           5.8649   -2.1245   30.2030 C.ar    1  UNL1        0.0131
     13 C           6.5943   -2.5902   28.9778 C.ar    1  UNL1        0.0174
     14 C           7.4927   -3.7891   29.0502 C.ar    1  UNL1        0.0837
     15 N           7.6618   -4.5223   30.3478 N.ar    1  UNL1       -0.2454
     16 C           6.9324   -4.0566   31.5730 C.ar    1  UNL1        0.1087
     17 N           4.5751   -1.9263   33.9510 N.1     1  UNL1       -0.1908
     18 C           5.3045   -2.3920   32.7258 C.1     1  UNL1        0.1020
     19 C           6.5257  -11.7614   27.9737 C.3     1  UNL1        0.1117
     20 C           5.2028  -12.4577   28.0969 C.ar    1  UNL1       -0.0131
     21 C           4.3119  -12.1730   29.2696 C.ar    1  UNL1       -0.0041
     22 C           2.9889  -12.8693   29.3929 C.ar    1  UNL1       -0.0043
     23 C           2.5571  -13.8502   28.3435 C.ar    1  UNL1       -0.0149
     24 C           3.4480  -14.1348   27.1708 C.ar    1  UNL1       -0.0043
     25 C           4.7709  -13.4386   27.0475 C.ar    1  UNL1       -0.0041
     26 C           1.2341  -14.5464   28.4668 C.3     1  UNL1        0.1063
     27 C           0.2234  -15.6536   28.5187 C.3     1  UNL1        0.0129
     28 C           1.6736  -15.9714   28.3041 C.3     1  UNL1        0.0129
     29 C           0.3352  -13.3634   28.6724 C.3     1  UNL1        0.4006
     30 F          -0.5637  -12.1803   28.8781 F       1  UNL1       -0.1697
     31 F           0.1515  -13.2452   27.1884 F       1  UNL1       -0.1697
     32 F           0.5190  -13.4817   30.1564 F       1  UNL1       -0.1697
@<TRIPOS>BOND
     1    17    18    3
     2    18    11    1
     3    11    12   ar
     4    12    13   ar
     5    13    14   ar
     6    14    10    1
     7    10     5    1
     8     5     6   ar
     9     6     7   ar
    10     7     8   ar
    11     8     1    1
    12     1     2   am
    13     2     3    2
    14     2    19    1
    15    19    20    1
    16    20    21   ar
    17    21    22   ar
    18    22    23   ar
    19    23    26    1
    20    26    29    1
    21    29    30    1
    22    29    31    1
    23    29    32    1
    24    26    27    1
    25    27    28    1
    26    23    24   ar
    27    24    25   ar
    28     8     9   ar
    29    14    15   ar
    30    15    16   ar
    31    16    11   ar
    32     9     5   ar
    33    25    20   ar
    34    28    26    1
    35     1     4    1
@<TRIPOS>MOLECULE
*****
 32 35 0 0 0
SMALL
GASTEIGER

@<TRIPOS>ATOM
      1 N           6.4840   -4.6372   26.3150 N.am    1  UNL1       -0.2677
      2 C           7.5441   -4.2409   25.3307 C.2     1  UNL1        0.2316
      3 O           8.5317   -3.1684   25.6833 O.2     1  UNL1       -0.2744
      4 H           5.8358   -5.3412   26.0836 H       1  UNL1        0.1563
      5 N           6.5269   -3.5534   30.0418 N.ar    1  UNL1       -0.2421
      6 C           6.0723   -2.2879   29.3771 C.ar    1  UNL1        0.0985
      7 C           6.0008   -2.5398   27.9001 C.ar    1  UNL1        0.0564
      8 C           6.4113   -3.9611   27.6519 C.ar    1  UNL1        0.1555
      9 N           6.7365   -4.5875   28.9755 N.ar    1  UNL1       -0.1536
     10 C           6.7354   -3.7502   31.5141 C.3     1  UNL1        0.1728
     11 C           5.2165   -0.6796   34.4320 C.ar    1  UNL1        0.0875
     12 C           6.6077   -0.5683   33.8824 C.ar    1  UNL1        0.0131
     13 C           7.1140   -1.5918   32.9098 C.ar    1  UNL1        0.0174
     14 C           6.2291   -2.7267   32.4867 C.ar    1  UNL1        0.0837
     15 N           4.8379   -2.8380   33.0364 N.ar    1  UNL1       -0.2454
     16 C           4.3316   -1.8145   34.0090 C.ar    1  UNL1        0.1087
     17 N           4.2039    1.3674   36.3773 N.1     1  UNL1       -0.1908
     18 C           4.7102    0.3439   35.4047 C.1     1  UNL1        0.1020
     19 C           7.6168   -4.9170   23.9937 C.3     1  UNL1        0.1117
     20 C           6.9026   -4.3259   22.8145 C.ar    1  UNL1       -0.0131
     21 C           7.6098   -4.1943   21.4982 C.ar    1  UNL1       -0.0041
     22 C           6.8955   -3.6031   20.3190 C.ar    1  UNL1       -0.0043
     23 C           5.4743   -3.1436   20.4561 C.ar    1  UNL1       -0.0149
     24 C           4.7672   -3.2752   21.7724 C.ar    1  UNL1       -0.0043
     25 C           5.4813   -3.8663   22.9516 C.ar    1  UNL1       -0.0041
     26 C           4.7602   -2.5524   19.2769 C.3     1  UNL1        0.1063
     27 C           4.4168   -1.6021   18.1682 C.3     1  UNL1        0.0129
     28 C           5.5797   -1.3130   19.0706 C.3     1  UNL1        0.0129
     29 C           3.6927   -3.5864   19.0736 C.3     1  UNL1        0.4006
     30 F           2.6253   -4.6204   18.8702 F       1  UNL1       -0.1697
     31 F           2.6730   -2.6457   19.6439 F       1  UNL1       -0.1697
     32 F           4.7125   -4.5270   18.5032 F       1  UNL1       -0.1697
@<TRIPOS>BOND
     1    17    18    3
     2    18    11    1
     3    11    12   ar
     4    12    13   ar
     5    13    14   ar
     6    14    10    1
     7    10     5    1
     8     5     6   ar
     9     6     7   ar
    10     7     8   ar
    11     8     1    1
    12     1     2   am
    13     2     3    2
    14     2    19    1
    15    19    20    1
    16    20    21   ar
    17    21    22   ar
    18    22    23   ar
    19    23    26    1
    20    26    29    1
    21    29    30    1
    22    29    31    1
    23    29    32    1
    24    26    27    1
    25    27    28    1
    26    23    24   ar
    27    24    25   ar
    28     8     9   ar
    29    14    15   ar
    30    15    16   ar
    31    16    11   ar
    32     9     5   ar
    33    25    20   ar
    34    28    26    1
    35     1     4    1
@<TRIPOS>MOLECULE
*****
 32 35 0 0 0
SMALL
GASTEIGER

@<TRIPOS>ATOM
      1 N          -0.5543    1.8342   20.4840 N.am    1  UNL1       -0.2677
      2 C           0.6322    2.1103   19.6089 C.2     1  UNL1        0.2316
      3 O           1.4127    3.3794   19.7820 O.2     1  UNL1       -0.2744
      4 H          -1.0666    1.0012   20.3703 H       1  UNL1        0.1563
      5 N          -1.0995    4.0466   23.6262 N.ar    1  UNL1       -0.2421
      6 C          -2.0711    4.6643   22.6647 C.ar    1  UNL1        0.0985
      7 C          -1.9851    3.9106   21.3705 C.ar    1  UNL1        0.0564
      8 C          -0.9604    2.8272   21.5322 C.ar    1  UNL1        0.1555
      9 N          -0.4130    2.9112   22.9263 N.ar    1  UNL1       -0.1536
     10 C          -0.8569    4.4869   25.0395 C.3     1  UNL1        0.1728
     11 C           0.6191    1.5314   28.0951 C.ar    1  UNL1        0.0875
     12 C          -0.8348    1.5677   27.7279 C.ar    1  UNL1        0.0131
     13 C          -1.3268    2.5528   26.7094 C.ar    1  UNL1        0.0174
     14 C          -0.3649    3.5017   26.0580 C.ar    1  UNL1        0.0837
     15 N           1.0890    3.4654   26.4252 N.ar    1  UNL1       -0.2454
     16 C           1.5810    2.4803   27.4437 C.ar    1  UNL1        0.1087
     17 N           1.6030   -0.4389   30.1322 N.1     1  UNL1       -0.1908
     18 C           1.1110    0.5462   29.1136 C.1     1  UNL1        0.1020
     19 C           1.0383    1.1172   18.5606 C.3     1  UNL1        0.1117
     20 C           2.0297    0.0412   18.8908 C.ar    1  UNL1       -0.0131
     21 C           3.1037   -0.3168   17.9067 C.ar    1  UNL1       -0.0041
     22 C           4.0952   -1.3929   18.2370 C.ar    1  UNL1       -0.0043
     23 C           4.0126   -2.1110   19.5513 C.ar    1  UNL1       -0.0149
     24 C           2.9387   -1.7530   20.5354 C.ar    1  UNL1       -0.0043
     25 C           1.9472   -0.6770   20.2052 C.ar    1  UNL1       -0.0041
     26 C           5.0042   -3.1871   19.8815 C.3     1  UNL1        0.1063
     27 C           6.3136   -3.8511   20.1888 C.3     1  UNL1        0.0129
     28 C           6.2641   -2.3744   19.9300 C.3     1  UNL1        0.0129
     29 C           4.0887   -4.3734   19.9478 C.3     1  UNL1        0.4006
     30 F           3.1732   -5.5598   20.0139 F       1  UNL1       -0.1697
     31 F           4.2031   -4.3782   21.4434 F       1  UNL1       -0.1697
     32 F           3.9744   -4.3686   18.4521 F       1  UNL1       -0.1697
@<TRIPOS>BOND
     1    17    18    3
     2    18    11    1
     3    11    12   ar
     4    12    13   ar
     5    13    14   ar
     6    14    10    1
     7    10     5    1
     8     5     6   ar
     9     6     7   ar
    10     7     8   ar
    11     8     1    1
    12     1     2   am
    13     2     3    2
    14     2    19    1
    15    19    20    1
    16    20    21   ar
    17    21    22   ar
    18    22    23   ar
    19    23    26    1
    20    26    29    1
    21    29    30    1
    22    29    31    1
    23    29    32    1
    24    26    27    1
    25    27    28    1
    26    23    24   ar
    27    24    25   ar
    28     8     9   ar
    29    14    15   ar
    30    15    16   ar
    31    16    11   ar
    32     9     5   ar
    33    25    20   ar
    34    28    26    1
    35     1     4    1
@<TRIPOS>MOLECULE
*****
 32 35 0 0 0
SMALL
GASTEIGER

@<TRIPOS>ATOM
      1 N           1.5715    1.9914   22.9289 N.am    1  UNL1       -0.2677
      2 C           0.9987    1.8003   21.5558 C.2     1  UNL1        0.2316
      3 O          -0.4880    1.7463   21.3642 O.2     1  UNL1       -0.2744
      4 H           2.5473    2.0269   23.0546 H       1  UNL1        0.1563
      5 N          -0.9317    3.0320   25.7068 N.ar    1  UNL1       -0.2421
      6 C          -0.5659    1.6465   26.1504 C.ar    1  UNL1        0.0985
      7 C           0.4163    1.0880   25.1637 C.ar    1  UNL1        0.0564
      8 C           0.6576    2.1284   24.1104 C.ar    1  UNL1        0.1555
      9 N          -0.1755    3.3298   24.4460 N.ar    1  UNL1       -0.1536
     10 C          -1.8860    3.9572   26.4019 C.3     1  UNL1        0.1728
     11 C          -6.0551    4.5080   24.8002 C.ar    1  UNL1        0.0875
     12 C          -5.6633    5.1375   26.1041 C.ar    1  UNL1        0.0131
     13 C          -4.2736    4.9539   26.6380 C.ar    1  UNL1        0.0174
     14 C          -3.2757    4.1408   25.8680 C.ar    1  UNL1        0.0837
     15 N          -3.6675    3.5113   24.5641 N.ar    1  UNL1       -0.2454
     16 C          -5.0572    3.6949   24.0302 C.ar    1  UNL1        0.1087
     17 N          -8.8345    4.8752   23.7325 N.1     1  UNL1       -0.1908
     18 C          -7.4448    4.6916   24.2664 C.1     1  UNL1        0.1020
     19 C           1.9126    1.6633   20.3743 C.3     1  UNL1        0.1117
     20 C           2.5524    0.3411   20.0703 C.ar    1  UNL1       -0.0131
     21 C           2.8616   -0.0339   18.6512 C.ar    1  UNL1       -0.0041
     22 C           3.5014   -1.3562   18.3473 C.ar    1  UNL1       -0.0043
     23 C           3.8318   -2.3034   19.4624 C.ar    1  UNL1       -0.0149
     24 C           3.5226   -1.9285   20.8814 C.ar    1  UNL1       -0.0043
     25 C           2.8828   -0.6063   21.1854 C.ar    1  UNL1       -0.0041
     26 C           4.4716   -3.6257   19.1583 C.3     1  UNL1        0.1063
     27 C           4.6096   -5.0884   18.8557 C.3     1  UNL1        0.0129
     28 C           3.2492   -4.4892   19.0568 C.3     1  UNL1        0.0129
     29 C           5.9161   -3.2215   19.1543 C.3     1  UNL1        0.4006
     30 F           7.3605   -2.8172   19.1501 F       1  UNL1       -0.1697
     31 F           6.0172   -3.5684   20.6101 F       1  UNL1       -0.1697
     32 F           5.8149   -2.8746   17.6984 F       1  UNL1       -0.1697
@<TRIPOS>BOND
     1    17    18    3
     2    18    11    1
     3    11    12   ar
     4    12    13   ar
     5    13    14   ar
     6    14    10    1
     7    10     5    1
     8     5     6   ar
     9     6     7   ar
    10     7     8   ar
    11     8     1    1
    12     1     2   am
    13     2     3    2
    14     2    19    1
    15    19    20    1
    16    20    21   ar
    17    21    22   ar
    18    22    23   ar
    19    23    26    1
    20    26    29    1
    21    29    30    1
    22    29    31    1
    23    29    32    1
    24    26    27    1
    25    27    28    1
    26    23    24   ar
    27    24    25   ar
    28     8     9   ar
    29    14    15   ar
    30    15    16   ar
    31    16    11   ar
    32     9     5   ar
    33    25    20   ar
    34    28    26    1
    35     1     4    1
