@<TRIPOS>MOLECULE
*****
 29 32 0 0 0
SMALL
GASTEIGER

@<TRIPOS>ATOM
      1 S         -10.5371  -19.5221   23.3287 S.3     1  UNL1       -0.0653
      2 C         -10.9196  -18.5698   22.2348 C.ar    1  UNL1        0.1973
      3 N         -11.9411  -18.8198   21.1652 N.ar    1  UNL1       -0.1221
      4 N         -12.0006  -17.6047   20.2878 N.ar    1  UNL1       -0.1325
      5 C         -11.0157  -16.6036   20.8150 C.ar    1  UNL1        0.1479
      6 C         -10.7462  -15.2447   20.2400 C.3     1  UNL1        0.0742
      7 N         -10.3476  -17.2001   22.0184 N.ar    1  UNL1       -0.2724
      8 C          -9.2928  -16.5423   22.8578 C.ar    1  UNL1        0.0671
      9 C          -9.6212  -16.0761   24.2452 C.ar    1  UNL1        0.0207
     10 C          -8.5664  -15.4183   25.0846 C.ar    1  UNL1        0.0384
     11 C          -7.1832  -15.2267   24.5368 C.ar    1  UNL1        0.1388
     12 C          -6.8548  -15.6930   23.1494 C.ar    1  UNL1        0.0384
     13 C          -7.9096  -16.3508   22.3100 C.ar    1  UNL1        0.0207
     14 O          -6.1284  -14.5690   25.3763 O.3     1  UNL1       -0.4714
     15 C          -5.0818  -15.4026   26.0543 C.3     1  UNL1        0.2525
     16 C          -9.2042  -20.2091   23.2929 C.3     1  UNL1        0.1528
     17 C          -6.1284  -19.4295   21.0574 C.ar    1  UNL1        0.2033
     18 N          -7.2502  -19.2613   20.0759 N.ar    1  UNL1       -0.0560
     19 O          -8.5390  -19.5329   20.7938 O.2     1  UNL1       -0.3361
     20 C          -8.2137  -19.8689   22.2190 C.ar    1  UNL1        0.2480
     21 N          -6.7239  -19.8050   22.3819 N.ar    1  UNL1       -0.1900
     22 C          -1.7463  -18.9003   20.1819 C.ar    1  UNL1        0.1387
     23 C          -2.7611  -18.6569   19.1045 C.ar    1  UNL1        0.0370
     24 C          -4.2218  -18.8333   19.3963 C.ar    1  UNL1        0.0063
     25 C          -4.6677  -19.2531   20.7655 C.ar    1  UNL1        0.0393
     26 C          -3.6529  -19.4965   21.8429 C.ar    1  UNL1        0.0063
     27 C          -2.1922  -19.3201   21.5511 C.ar    1  UNL1        0.0370
     28 C           0.3702  -17.3948   20.1206 C.3     1  UNL1        0.2525
     29 O          -0.2855  -18.7240   19.8901 O.3     1  UNL1       -0.4714
@<TRIPOS>BOND
     1    28    29    1
     2    29    22    1
     3    22    23   ar
     4    23    24   ar
     5    24    25   ar
     6    25    17    1
     7    17    18   ar
     8    18    19   ar
     9    19    20   ar
    10    20    16    1
    11    16     1    1
    12     1     2    1
    13     2     3   ar
    14     3     4   ar
    15     4     5   ar
    16     5     6    1
    17     5     7   ar
    18     7     8    1
    19     8     9   ar
    20     9    10   ar
    21    10    11   ar
    22    11    14    1
    23    14    15    1
    24    11    12   ar
    25    12    13   ar
    26    20    21   ar
    27    25    26   ar
    28    26    27   ar
    29    27    22   ar
    30    21    17   ar
    31     7     2   ar
    32    13     8   ar
@<TRIPOS>MOLECULE
*****
 29 32 0 0 0
SMALL
GASTEIGER

@<TRIPOS>ATOM
      1 S          -3.7641  -17.7892   23.5427 S.3     1  UNL1       -0.0653
      2 C          -3.2383  -18.6377   22.4231 C.ar    1  UNL1        0.1973
      3 N          -1.7927  -18.8740   22.0998 N.ar    1  UNL1       -0.1221
      4 N          -1.7267  -19.7812   20.9070 N.ar    1  UNL1       -0.1325
      5 C          -3.1316  -20.1055   20.4931 C.ar    1  UNL1        0.1479
      6 C          -3.5319  -20.9826   19.3440 C.3     1  UNL1        0.0742
      7 N          -4.0657  -19.3988   21.4301 N.ar    1  UNL1       -0.2724
      8 C          -5.5643  -19.4450   21.3824 C.ar    1  UNL1        0.0671
      9 C          -6.3285  -20.1326   22.4747 C.ar    1  UNL1        0.0207
     10 C          -7.8270  -20.1789   22.4270 C.ar    1  UNL1        0.0384
     11 C          -8.5614  -19.5376   21.2871 C.ar    1  UNL1        0.1388
     12 C          -7.7971  -18.8500   20.1947 C.ar    1  UNL1        0.0384
     13 C          -6.2985  -18.8037   20.2424 C.ar    1  UNL1        0.0207
     14 O         -10.0599  -19.5839   21.2394 O.3     1  UNL1       -0.4714
     15 C         -10.8035  -18.7660   20.2254 C.3     1  UNL1        0.2525
     16 C          -4.2866  -16.4122   23.2585 C.3     1  UNL1        0.1528
     17 C          -8.1288  -16.1811   23.7585 C.ar    1  UNL1        0.2033
     18 N          -7.6759  -14.9011   24.3961 N.ar    1  UNL1       -0.0560
     19 O          -6.1816  -14.8319   24.2865 O.2     1  UNL1       -0.3361
     20 C          -5.7108  -16.0691   23.5810 C.ar    1  UNL1        0.2480
     21 N          -6.9142  -16.9029   23.2547 N.ar    1  UNL1       -0.1900
     22 C         -12.3837  -17.6054   23.4168 C.ar    1  UNL1        0.1387
     23 C         -11.4120  -18.3472   24.2859 C.ar    1  UNL1        0.0370
     24 C          -9.9937  -17.8724   24.3998 C.ar    1  UNL1        0.0063
     25 C          -9.5471  -16.6558   23.6446 C.ar    1  UNL1        0.0393
     26 C         -10.5188  -15.9140   22.7755 C.ar    1  UNL1        0.0063
     27 C         -11.9371  -16.3888   22.6616 C.ar    1  UNL1        0.0370
     28 C         -14.5840  -18.4103   24.5396 C.3     1  UNL1        0.2525
     29 O         -13.8020  -18.0801   23.3029 O.3     1  UNL1       -0.4714
@<TRIPOS>BOND
     1    28    29    1
     2    29    22    1
     3    22    23   ar
     4    23    24   ar
     5    24    25   ar
     6    25    17    1
     7    17    18   ar
     8    18    19   ar
     9    19    20   ar
    10    20    16    1
    11    16     1    1
    12     1     2    1
    13     2     3   ar
    14     3     4   ar
    15     4     5   ar
    16     5     6    1
    17     5     7   ar
    18     7     8    1
    19     8     9   ar
    20     9    10   ar
    21    10    11   ar
    22    11    14    1
    23    14    15    1
    24    11    12   ar
    25    12    13   ar
    26    20    21   ar
    27    25    26   ar
    28    26    27   ar
    29    27    22   ar
    30    21    17   ar
    31     7     2   ar
    32    13     8   ar
@<TRIPOS>MOLECULE
*****
 29 32 0 0 0
SMALL
GASTEIGER

@<TRIPOS>ATOM
      1 S          -4.9915  -20.3919   21.6618 S.3     1  UNL1       -0.0653
      2 C          -3.8191  -19.4720   21.4918 C.ar    1  UNL1        0.1973
      3 N          -2.5551  -19.7831   20.7464 N.ar    1  UNL1       -0.1221
      4 N          -1.6595  -18.5828   20.8313 N.ar    1  UNL1       -0.1325
      5 C          -2.3700  -17.5298   21.6291 C.ar    1  UNL1        0.1479
      6 C          -1.8391  -16.1667   21.9605 C.3     1  UNL1        0.0742
      7 N          -3.7047  -18.0794   22.0373 N.ar    1  UNL1       -0.2724
      8 C          -4.7428  -17.3623   22.8486 C.ar    1  UNL1        0.0671
      9 C          -4.3367  -16.5761   24.0598 C.ar    1  UNL1        0.0207
     10 C          -5.3748  -15.8590   24.8711 C.ar    1  UNL1        0.0384
     11 C          -6.8188  -15.9280   24.4712 C.ar    1  UNL1        0.1388
     12 C          -7.2249  -16.7142   23.2599 C.ar    1  UNL1        0.0384
     13 C          -6.1868  -17.4313   22.4486 C.ar    1  UNL1        0.0207
     14 O          -7.8569  -15.2108   25.2825 O.3     1  UNL1       -0.4714
     15 C          -8.1633  -15.6654   26.6787 C.3     1  UNL1        0.2525
     16 C          -5.9215  -20.6420   20.5117 C.3     1  UNL1        0.1528
     17 C          -9.4356  -19.1170   21.1373 C.ar    1  UNL1        0.2033
     18 N          -9.2235  -18.7735   19.6927 N.ar    1  UNL1       -0.0560
     19 O          -7.8814  -19.3030   19.2825 O.2     1  UNL1       -0.3361
     20 C          -7.2639  -19.9737   20.4736 C.ar    1  UNL1        0.2480
     21 N          -8.2244  -19.8588   21.6200 N.ar    1  UNL1       -0.1900
     22 C         -13.0674  -18.1008   23.5924 C.ar    1  UNL1        0.1387
     23 C         -11.8679  -18.7185   24.2478 C.ar    1  UNL1        0.0370
     24 C         -10.6573  -19.0573   23.4294 C.ar    1  UNL1        0.0063
     25 C         -10.6462  -18.7783   21.9557 C.ar    1  UNL1        0.0393
     26 C         -11.8456  -18.1605   21.3003 C.ar    1  UNL1        0.0063
     27 C         -13.0562  -17.8218   22.1186 C.ar    1  UNL1        0.0370
     28 C         -14.5214  -18.4617   25.7150 C.3     1  UNL1        0.2525
     29 O         -14.2780  -17.7620   24.4107 O.3     1  UNL1       -0.4714
@<TRIPOS>BOND
     1    28    29    1
     2    29    22    1
     3    22    23   ar
     4    23    24   ar
     5    24    25   ar
     6    25    17    1
     7    17    18   ar
     8    18    19   ar
     9    19    20   ar
    10    20    16    1
    11    16     1    1
    12     1     2    1
    13     2     3   ar
    14     3     4   ar
    15     4     5   ar
    16     5     6    1
    17     5     7   ar
    18     7     8    1
    19     8     9   ar
    20     9    10   ar
    21    10    11   ar
    22    11    14    1
    23    14    15    1
    24    11    12   ar
    25    12    13   ar
    26    20    21   ar
    27    25    26   ar
    28    26    27   ar
    29    27    22   ar
    30    21    17   ar
    31     7     2   ar
    32    13     8   ar
@<TRIPOS>MOLECULE
*****
 29 32 0 0 0
SMALL
GASTEIGER

@<TRIPOS>ATOM
      1 S          -1.3927    4.9221   18.9797 S.3     1  UNL1       -0.0653
      2 C          -2.6911    4.3760   18.4644 C.ar    1  UNL1        0.1973
      3 N          -2.9775    3.9709   17.0488 N.ar    1  UNL1       -0.1221
      4 N          -4.3947    3.4836   16.9838 N.ar    1  UNL1       -0.1325
      5 C          -4.9842    3.5874   18.3593 C.ar    1  UNL1        0.1479
      6 C          -6.3811    3.2066   18.7508 C.3     1  UNL1        0.0742
      7 N          -3.9313    4.1390   19.2743 N.ar    1  UNL1       -0.2724
      8 C          -4.0906    4.4065   20.7416 C.ar    1  UNL1        0.0671
      9 C          -4.1023    3.2654   21.7151 C.ar    1  UNL1        0.0207
     10 C          -4.2616    3.5329   23.1824 C.ar    1  UNL1        0.0384
     11 C          -4.4094    4.9415   23.6763 C.ar    1  UNL1        0.1388
     12 C          -4.3977    6.0827   22.7028 C.ar    1  UNL1        0.0384
     13 C          -4.2384    5.8152   21.2355 C.ar    1  UNL1        0.0207
     14 O          -4.5687    5.2091   25.1436 O.3     1  UNL1       -0.4714
     15 C          -4.3987    4.0937   26.1321 C.3     1  UNL1        0.2525
     16 C          -0.7554    4.3188   20.1962 C.3     1  UNL1        0.1528
     17 C           1.0275    0.9019   19.7362 C.ar    1  UNL1        0.2033
     18 N          -0.1808    0.4944   20.5260 N.ar    1  UNL1       -0.0560
     19 O          -0.9958    1.7247   20.7944 O.2     1  UNL1       -0.3361
     20 C          -0.2911    2.8927   20.1706 C.ar    1  UNL1        0.2480
     21 N           0.9594    2.3842   19.5166 N.ar    1  UNL1       -0.1900
     22 C           4.2851   -1.8406   18.2813 C.ar    1  UNL1        0.1387
     23 C           3.5668   -2.1431   19.5628 C.ar    1  UNL1        0.0370
     24 C           2.4809   -1.2289   20.0478 C.ar    1  UNL1        0.0063
     25 C           2.1134   -0.0122   19.2512 C.ar    1  UNL1        0.0393
     26 C           2.8318    0.2903   17.9697 C.ar    1  UNL1        0.0063
     27 C           3.9176   -0.6239   17.4847 C.ar    1  UNL1        0.0370
     28 C           6.8095   -2.4043   18.0369 C.3     1  UNL1        0.2525
     29 O           5.3710   -2.7547   17.7963 O.3     1  UNL1       -0.4714
@<TRIPOS>BOND
     1    28    29    1
     2    29    22    1
     3    22    23   ar
     4    23    24   ar
     5    24    25   ar
     6    25    17    1
     7    17    18   ar
     8    18    19   ar
     9    19    20   ar
    10    20    16    1
    11    16     1    1
    12     1     2    1
    13     2     3   ar
    14     3     4   ar
    15     4     5   ar
    16     5     6    1
    17     5     7   ar
    18     7     8    1
    19     8     9   ar
    20     9    10   ar
    21    10    11   ar
    22    11    14    1
    23    14    15    1
    24    11    12   ar
    25    12    13   ar
    26    20    21   ar
    27    25    26   ar
    28    26    27   ar
    29    27    22   ar
    30    21    17   ar
    31     7     2   ar
    32    13     8   ar
@<TRIPOS>MOLECULE
*****
 29 32 0 0 0
SMALL
GASTEIGER

@<TRIPOS>ATOM
      1 S           4.4107   -3.3104   18.6729 S.3     1  UNL1       -0.0653
      2 C           5.1383   -2.0944   18.1813 C.ar    1  UNL1        0.1973
      3 N           6.4715   -2.0824   17.4940 N.ar    1  UNL1       -0.1221
      4 N           6.8176   -0.6574   17.1786 N.ar    1  UNL1       -0.1325
      5 C           5.6983    0.2114   17.6710 C.ar    1  UNL1        0.1479
      6 C           5.6291    1.7058   17.5627 C.3     1  UNL1        0.0742
      7 N           4.6604   -0.6768   18.2907 N.ar    1  UNL1       -0.2724
      8 C           3.3711   -0.2263   18.9109 C.ar    1  UNL1        0.0671
      9 C           3.1580   -0.3732   20.3884 C.ar    1  UNL1        0.0207
     10 C           1.8687    0.0773   21.0086 C.ar    1  UNL1        0.0384
     11 C           0.7924    0.6746   20.1515 C.ar    1  UNL1        0.1388
     12 C           1.0055    0.8214   18.6739 C.ar    1  UNL1        0.0384
     13 C           2.2948    0.3710   18.0537 C.ar    1  UNL1        0.0207
     14 O          -0.4970    1.1251   20.7717 O.3     1  UNL1       -0.4714
     15 C          -0.9440    2.5491   20.6217 C.3     1  UNL1        0.2525
     16 C           5.1465   -4.3618   19.4496 C.3     1  UNL1        0.1528
     17 C           6.6016   -3.7399   22.9938 C.ar    1  UNL1        0.2033
     18 N           7.6273   -3.0601   22.1360 N.ar    1  UNL1       -0.0560
     19 O           7.2071   -3.2103   20.7039 O.2     1  UNL1       -0.3361
     20 C           5.9217   -3.9830   20.6766 C.ar    1  UNL1        0.2480
     21 N           5.5475   -4.3102   22.0919 N.ar    1  UNL1       -0.1900
     22 C           6.6742   -4.0191   27.4846 C.ar    1  UNL1        0.1387
     23 C           6.1974   -2.7624   26.8189 C.ar    1  UNL1        0.0370
     24 C           6.1732   -2.6693   25.3219 C.ar    1  UNL1        0.0063
     25 C           6.6258   -3.8330   24.4907 C.ar    1  UNL1        0.0393
     26 C           7.1025   -5.0897   25.1564 C.ar    1  UNL1        0.0063
     27 C           7.1267   -5.1828   26.6533 C.ar    1  UNL1        0.0370
     28 C           6.7693   -5.4538   29.6484 C.3     1  UNL1        0.2525
     29 O           6.6983   -4.1122   28.9815 O.3     1  UNL1       -0.4714
@<TRIPOS>BOND
     1    28    29    1
     2    29    22    1
     3    22    23   ar
     4    23    24   ar
     5    24    25   ar
     6    25    17    1
     7    17    18   ar
     8    18    19   ar
     9    19    20   ar
    10    20    16    1
    11    16     1    1
    12     1     2    1
    13     2     3   ar
    14     3     4   ar
    15     4     5   ar
    16     5     6    1
    17     5     7   ar
    18     7     8    1
    19     8     9   ar
    20     9    10   ar
    21    10    11   ar
    22    11    14    1
    23    14    15    1
    24    11    12   ar
    25    12    13   ar
    26    20    21   ar
    27    25    26   ar
    28    26    27   ar
    29    27    22   ar
    30    21    17   ar
    31     7     2   ar
    32    13     8   ar
@<TRIPOS>MOLECULE
*****
 29 32 0 0 0
SMALL
GASTEIGER

@<TRIPOS>ATOM
      1 S           3.8235   -3.5601   19.0092 S.3     1  UNL1       -0.0653
      2 C           4.6811   -2.4604   18.4568 C.ar    1  UNL1        0.1973
      3 N           6.0123   -2.6323   17.7872 N.ar    1  UNL1       -0.1221
      4 N           6.5120   -1.2739   17.3936 N.ar    1  UNL1       -0.1325
      5 C           5.4896   -0.2624   17.8199 C.ar    1  UNL1        0.1479
      6 C           5.5825    1.2217   17.6236 C.3     1  UNL1        0.0742
      7 N           4.3581   -0.9958   18.4770 N.ar    1  UNL1       -0.2724
      8 C           3.1207   -0.3736   19.0531 C.ar    1  UNL1        0.0671
      9 C           2.8817   -0.4118   20.5334 C.ar    1  UNL1        0.0207
     10 C           1.6443    0.2104   21.1096 C.ar    1  UNL1        0.0384
     11 C           0.6460    0.8707   20.2055 C.ar    1  UNL1        0.1388
     12 C           0.8851    0.9088   18.7251 C.ar    1  UNL1        0.0384
     13 C           2.1225    0.2866   18.1489 C.ar    1  UNL1        0.0207
     14 O          -0.5913    1.4928   20.7816 O.3     1  UNL1       -0.4714
     15 C          -0.6551    2.9762   20.9952 C.3     1  UNL1        0.2525
     16 C           4.3715   -4.4850   20.0552 C.3     1  UNL1        0.1528
     17 C           4.8283   -2.6822   23.4621 C.ar    1  UNL1        0.2033
     18 N           6.0611   -3.5356   23.4181 N.ar    1  UNL1       -0.0560
     19 O           6.0401   -4.3148   22.1366 O.2     1  UNL1       -0.3361
     20 C           4.7942   -3.9430   21.3885 C.ar    1  UNL1        0.2480
     21 N           4.0453   -2.9340   22.2077 N.ar    1  UNL1       -0.1900
     22 C           3.6804    0.1380   26.7755 C.ar    1  UNL1        0.1387
     23 C           2.9677    0.2002   25.4571 C.ar    1  UNL1        0.0370
     24 C           3.3504   -0.7399   24.3526 C.ar    1  UNL1        0.0063
     25 C           4.4457   -1.7421   24.5666 C.ar    1  UNL1        0.0393
     26 C           5.1583   -1.8043   25.8850 C.ar    1  UNL1        0.0063
     27 C           4.7757   -0.8642   26.9894 C.ar    1  UNL1        0.0370
     28 C           1.8917    1.5921   27.9739 C.3     1  UNL1        0.2525
     29 O           3.2977    1.0781   27.8799 O.3     1  UNL1       -0.4714
@<TRIPOS>BOND
     1    28    29    1
     2    29    22    1
     3    22    23   ar
     4    23    24   ar
     5    24    25   ar
     6    25    17    1
     7    17    18   ar
     8    18    19   ar
     9    19    20   ar
    10    20    16    1
    11    16     1    1
    12     1     2    1
    13     2     3   ar
    14     3     4   ar
    15     4     5   ar
    16     5     6    1
    17     5     7   ar
    18     7     8    1
    19     8     9   ar
    20     9    10   ar
    21    10    11   ar
    22    11    14    1
    23    14    15    1
    24    11    12   ar
    25    12    13   ar
    26    20    21   ar
    27    25    26   ar
    28    26    27   ar
    29    27    22   ar
    30    21    17   ar
    31     7     2   ar
    32    13     8   ar
@<TRIPOS>MOLECULE
*****
 29 32 0 0 0
SMALL
GASTEIGER

@<TRIPOS>ATOM
      1 S           8.5757   -2.2559   19.7783 S.3     1  UNL1       -0.0653
      2 C           7.2349   -2.1477   19.1148 C.ar    1  UNL1        0.1973
      3 N           6.9819   -2.1266   17.6364 N.ar    1  UNL1       -0.1221
      4 N           5.5022   -2.0075   17.4210 N.ar    1  UNL1       -0.1325
      5 C           4.8407   -1.9549   18.7663 C.ar    1  UNL1        0.1479
      6 C           3.3672   -1.8365   19.0202 C.3     1  UNL1        0.0742
      7 N           5.9116   -2.0416   19.8131 N.ar    1  UNL1       -0.2724
      8 C           5.6969   -2.0251   21.2975 C.ar    1  UNL1        0.0671
      9 C           6.0721   -0.8121   22.0961 C.ar    1  UNL1        0.0207
     10 C           5.8574   -0.7955   23.5806 C.ar    1  UNL1        0.0384
     11 C           5.2674   -1.9919   24.2665 C.ar    1  UNL1        0.1388
     12 C           4.8921   -3.2050   23.4678 C.ar    1  UNL1        0.0384
     13 C           5.1069   -3.2215   21.9834 C.ar    1  UNL1        0.0207
     14 O           5.0526   -1.9754   25.7510 O.3     1  UNL1       -0.4714
     15 C           3.9083   -1.2008   26.3345 C.3     1  UNL1        0.2525
     16 C           9.1705   -3.6055   20.0518 C.3     1  UNL1        0.1528
     17 C           8.1527   -4.8893   23.5706 C.ar    1  UNL1        0.2033
     18 N           8.1805   -6.1707   22.7913 N.ar    1  UNL1       -0.0560
     19 O           8.5651   -5.8458   21.3784 O.2     1  UNL1       -0.3361
     20 C           8.7751   -4.3636   21.2843 C.ar    1  UNL1        0.2480
     21 N           8.5202   -3.7724   22.6392 N.ar    1  UNL1       -0.1900
     22 C           7.1442   -4.4694   27.9360 C.ar    1  UNL1        0.1387
     23 C           6.6734   -5.6698   27.1695 C.ar    1  UNL1        0.0370
     24 C           7.0096   -5.8098   25.7144 C.ar    1  UNL1        0.0063
     25 C           7.8165   -4.7493   25.0257 C.ar    1  UNL1        0.0393
     26 C           8.2872   -3.5490   25.7921 C.ar    1  UNL1        0.0063
     27 C           7.9511   -3.4090   27.2473 C.ar    1  UNL1        0.0370
     28 C           6.9131   -5.5160   30.3026 C.3     1  UNL1        0.2525
     29 O           6.8080   -4.3295   29.3911 O.3     1  UNL1       -0.4714
@<TRIPOS>BOND
     1    28    29    1
     2    29    22    1
     3    22    23   ar
     4    23    24   ar
     5    24    25   ar
     6    25    17    1
     7    17    18   ar
     8    18    19   ar
     9    19    20   ar
    10    20    16    1
    11    16     1    1
    12     1     2    1
    13     2     3   ar
    14     3     4   ar
    15     4     5   ar
    16     5     6    1
    17     5     7   ar
    18     7     8    1
    19     8     9   ar
    20     9    10   ar
    21    10    11   ar
    22    11    14    1
    23    14    15    1
    24    11    12   ar
    25    12    13   ar
    26    20    21   ar
    27    25    26   ar
    28    26    27   ar
    29    27    22   ar
    30    21    17   ar
    31     7     2   ar
    32    13     8   ar
@<TRIPOS>MOLECULE
*****
 29 32 0 0 0
SMALL
GASTEIGER

@<TRIPOS>ATOM
      1 S           7.1015   -2.9274   19.5776 S.3     1  UNL1       -0.0653
      2 C           7.2234   -3.6406   20.8914 C.ar    1  UNL1        0.1973
      3 N           8.0323   -4.8766   21.1521 N.ar    1  UNL1       -0.1221
      4 N           7.8665   -5.2430   22.5971 N.ar    1  UNL1       -0.1325
      5 C           6.9550   -4.2335   23.2297 C.ar    1  UNL1        0.1479
      6 C           6.5178   -4.2171   24.6644 C.3     1  UNL1        0.0742
      7 N           6.5575   -3.2432   22.1755 N.ar    1  UNL1       -0.2724
      8 C           5.6530   -2.0627   22.3710 C.ar    1  UNL1        0.0671
      9 C           6.1985   -0.6710   22.2454 C.ar    1  UNL1        0.0207
     10 C           5.2940    0.5095   22.4410 C.ar    1  UNL1        0.0384
     11 C           3.8440    0.2985   22.7621 C.ar    1  UNL1        0.1388
     12 C           3.2986   -1.0933   22.8877 C.ar    1  UNL1        0.0384
     13 C           4.2031   -2.2738   22.6922 C.ar    1  UNL1        0.0207
     14 O           2.9395    1.4790   22.9577 O.3     1  UNL1       -0.4714
     15 C           2.9468    2.6021   21.9634 C.3     1  UNL1        0.2525
     16 C           5.9621   -3.2444   18.6549 C.3     1  UNL1        0.1528
     17 C           3.1146   -0.6103   18.5193 C.ar    1  UNL1        0.2033
     18 N           3.6563   -0.5238   17.1232 N.ar    1  UNL1       -0.0560
     19 O           4.7889   -1.5000   17.0040 O.2     1  UNL1       -0.3361
     20 C           4.9472   -2.1899   18.3265 C.ar    1  UNL1        0.2480
     21 N           3.9125   -1.6400   19.2630 N.ar    1  UNL1       -0.1900
     22 C          -0.3038    1.7966   20.1841 C.ar    1  UNL1        0.1387
     23 C           0.0036    0.4410   20.7478 C.ar    1  UNL1        0.0370
     24 C           1.1431   -0.3613   20.1929 C.ar    1  UNL1        0.0063
     25 C           1.9751    0.1920   19.0742 C.ar    1  UNL1        0.0393
     26 C           1.6677    1.5476   18.5105 C.ar    1  UNL1        0.0063
     27 C           0.5283    2.3499   19.0654 C.ar    1  UNL1        0.0370
     28 C          -2.1486    3.5992   19.8719 C.3     1  UNL1        0.2525
     29 O          -1.4433    2.5988   20.7390 O.3     1  UNL1       -0.4714
@<TRIPOS>BOND
     1    28    29    1
     2    29    22    1
     3    22    23   ar
     4    23    24   ar
     5    24    25   ar
     6    25    17    1
     7    17    18   ar
     8    18    19   ar
     9    19    20   ar
    10    20    16    1
    11    16     1    1
    12     1     2    1
    13     2     3   ar
    14     3     4   ar
    15     4     5   ar
    16     5     6    1
    17     5     7   ar
    18     7     8    1
    19     8     9   ar
    20     9    10   ar
    21    10    11   ar
    22    11    14    1
    23    14    15    1
    24    11    12   ar
    25    12    13   ar
    26    20    21   ar
    27    25    26   ar
    28    26    27   ar
    29    27    22   ar
    30    21    17   ar
    31     7     2   ar
    32    13     8   ar
@<TRIPOS>MOLECULE
*****
 29 32 0 0 0
SMALL
GASTEIGER

@<TRIPOS>ATOM
      1 S          -1.5961    4.1507   19.9818 S.3     1  UNL1       -0.0653
      2 C          -2.8621    3.9275   19.2089 C.ar    1  UNL1        0.1973
      3 N          -2.9643    3.7078   17.7286 N.ar    1  UNL1       -0.1221
      4 N          -4.4135    3.5294   17.3853 N.ar    1  UNL1       -0.1325
      5 C          -5.2071    3.6389   18.6536 C.ar    1  UNL1        0.1479
      6 C          -6.6977    3.5228   18.7737 C.3     1  UNL1        0.0742
      7 N          -4.2482    3.8850   19.7805 N.ar    1  UNL1       -0.2724
      8 C          -4.6117    4.0580   21.2255 C.ar    1  UNL1        0.0671
      9 C          -4.6220    2.8718   22.1435 C.ar    1  UNL1        0.0207
     10 C          -4.9855    3.0449   23.5884 C.ar    1  UNL1        0.0384
     11 C          -5.3388    4.4041   24.1155 C.ar    1  UNL1        0.1388
     12 C          -5.3285    5.5904   23.1974 C.ar    1  UNL1        0.0384
     13 C          -4.9649    5.4173   21.7524 C.ar    1  UNL1        0.0207
     14 O          -5.7023    4.5772   25.5604 O.3     1  UNL1       -0.4714
     15 C          -4.6254    4.6326   26.6032 C.3     1  UNL1        0.2525
     16 C          -1.0720    3.0769   20.8886 C.3     1  UNL1        0.1528
     17 C           1.5047    0.2456   20.2483 C.ar    1  UNL1        0.2033
     18 N           1.2173    0.6983   18.8474 N.ar    1  UNL1       -0.0560
     19 O           0.2171    1.8141   18.9167 O.2     1  UNL1       -0.3361
     20 C          -0.1137    2.0509   20.3605 C.ar    1  UNL1        0.2480
     21 N           0.6820    1.0815   21.1834 N.ar    1  UNL1       -0.1900
     22 C           4.3371   -3.0429   21.4368 C.ar    1  UNL1        0.1387
     23 C           3.8600   -2.9403   20.0185 C.ar    1  UNL1        0.0370
     24 C           2.9158   -1.8441   19.6223 C.ar    1  UNL1        0.0063
     25 C           2.4488   -0.8506   20.6444 C.ar    1  UNL1        0.0393
     26 C           2.9260   -0.9533   22.0628 C.ar    1  UNL1        0.0063
     27 C           3.8702   -2.0494   22.4589 C.ar    1  UNL1        0.0370
     28 C           6.3568   -3.8736   22.8443 C.3     1  UNL1        0.2525
     29 O           5.2813   -4.1391   21.8330 O.3     1  UNL1       -0.4714
@<TRIPOS>BOND
     1    28    29    1
     2    29    22    1
     3    22    23   ar
     4    23    24   ar
     5    24    25   ar
     6    25    17    1
     7    17    18   ar
     8    18    19   ar
     9    19    20   ar
    10    20    16    1
    11    16     1    1
    12     1     2    1
    13     2     3   ar
    14     3     4   ar
    15     4     5   ar
    16     5     6    1
    17     5     7   ar
    18     7     8    1
    19     8     9   ar
    20     9    10   ar
    21    10    11   ar
    22    11    14    1
    23    14    15    1
    24    11    12   ar
    25    12    13   ar
    26    20    21   ar
    27    25    26   ar
    28    26    27   ar
    29    27    22   ar
    30    21    17   ar
    31     7     2   ar
    32    13     8   ar
