@<TRIPOS>MOLECULE
*****
 35 38 0 0 0
SMALL
GASTEIGER

@<TRIPOS>ATOM
      1 N          -8.1642  -19.6204   20.2096 N.3     1  UNL1       -0.2653
      2 C          -7.7458  -19.8441   21.6326 C.3     1  UNL1        0.1036
      3 C          -6.2934  -19.7940   22.0040 C.3     1  UNL1        0.1470
      4 C          -4.8409  -19.7438   22.3754 C.3     1  UNL1        0.1035
      5 N          -3.8069  -19.4699   21.3238 N.3     1  UNL1       -0.2685
      6 C          -4.2254  -19.2462   19.9008 C.3     1  UNL1        0.1035
      7 C          -5.6778  -19.2964   19.5294 C.3     1  UNL1        0.1470
      8 C          -7.1302  -19.3466   19.1580 C.3     1  UNL1        0.1036
      9 O          -5.2594  -19.5201   20.9524 O.3     1  UNL1       -0.3530
     10 C          -9.6167  -19.6706   19.8382 C.3     1  UNL1        0.1202
     11 C         -10.3519  -18.4041   19.5135 C.3     1  UNL1        0.2226
     12 O         -10.5387  -17.3538   20.5681 O.3     1  UNL1       -0.4740
     13 C         -13.0643  -18.2251   24.1891 C.ar    1  UNL1        0.0686
     14 C         -11.5771  -18.4117   24.2494 C.ar    1  UNL1        0.0134
     15 C         -10.7353  -18.1213   23.0424 C.ar    1  UNL1        0.0376
     16 C         -11.3805  -17.6443   21.7751 C.ar    1  UNL1        0.1387
     17 C         -12.8676  -17.4577   21.7147 C.ar    1  UNL1        0.0376
     18 C         -13.7095  -17.7481   22.9218 C.ar    1  UNL1        0.0134
     19 N         -14.7480  -18.8060   26.6031 N.1     1  UNL1       -0.1908
     20 C         -13.9062  -18.5156   25.3961 C.1     1  UNL1        0.1004
     21 C          -2.3545  -19.4198   21.6952 C.3     1  UNL1        0.0737
     22 C          -1.7221  -18.1136   22.0747 C.3     1  UNL1        0.0362
     23 C          -2.3880  -17.2220   23.0805 C.3     1  UNL1        0.0929
     24 N          -3.5825  -16.4058   22.6845 N.3     1  UNL1       -0.1793
     25 H          -4.0309  -16.8963   21.9107 H       1  UNL1        0.1488
     26 S          -4.6558  -16.1105   23.6900 S.O2    1  UNL1        0.0602
     27 O          -4.3283  -17.3830   24.4134 O.2     1  UNL1       -0.1530
     28 O          -4.9834  -14.8379   22.9666 O.2     1  UNL1       -0.1530
     29 C          -5.7291  -15.8152   24.6954 C.ar    1  UNL1        0.1221
     30 C          -7.1674  -15.7870   24.2707 C.ar    1  UNL1        0.0222
     31 C          -8.2407  -15.4917   25.2761 C.ar    1  UNL1        0.0310
     32 C          -7.8756  -15.2246   26.7063 C.ar    1  UNL1        0.1402
     33 F          -8.9489  -14.9293   27.7117 F       1  UNL1       -0.2042
     34 C          -6.4372  -15.2528   27.1310 C.ar    1  UNL1        0.0310
     35 C          -5.3640  -15.5481   26.1256 C.ar    1  UNL1        0.0222
@<TRIPOS>BOND
     1    19    20    3
     2    20    13    1
     3    13    14   ar
     4    14    15   ar
     5    15    16   ar
     6    16    12    1
     7    12    11    1
     8    11    10    1
     9    10     1    1
    10     1     2    1
    11     2     3    1
    12     3     4    1
    13     4     5    1
    14     5    21    1
    15    21    22    1
    16    22    23    1
    17    23    24    1
    18    24    26    1
    19    26    27    2
    20    26    28    2
    21    26    29    1
    22    29    30   ar
    23    30    31   ar
    24    31    32   ar
    25    32    33    1
    26    32    34   ar
    27    34    35   ar
    28     5     6    1
    29     6     7    1
    30     7     8    1
    31     7     9    1
    32    16    17   ar
    33    17    18   ar
    34    18    13   ar
    35     8     1    1
    36     9     3    1
    37    35    29   ar
    38    24    25    1
@<TRIPOS>MOLECULE
*****
 35 38 0 0 0
SMALL
GASTEIGER

@<TRIPOS>ATOM
      1 N          -5.1009  -15.9781   25.0141 N.3     1  UNL1       -0.2653
      2 C          -4.8124  -15.0901   23.8401 C.3     1  UNL1        0.1036
      3 C          -3.9137  -15.5704   22.7394 C.3     1  UNL1        0.1470
      4 C          -3.0150  -16.0506   21.6386 C.3     1  UNL1        0.1035
      5 N          -2.4047  -17.4189   21.7119 N.3     1  UNL1       -0.2685
      6 C          -2.6931  -18.3069   22.8859 C.3     1  UNL1        0.1035
      7 C          -3.5919  -17.8266   23.9866 C.3     1  UNL1        0.1470
      8 C          -4.4906  -17.3464   25.0873 C.3     1  UNL1        0.1036
      9 O          -3.3034  -16.9386   22.8127 O.3     1  UNL1       -0.3530
     10 C          -5.9996  -15.4978   26.1149 C.3     1  UNL1        0.1202
     11 C          -7.4862  -15.4801   25.9155 C.3     1  UNL1        0.2226
     12 O          -8.1685  -16.6425   25.2570 O.3     1  UNL1       -0.4740
     13 C         -10.5186  -16.0215   21.4701 C.ar    1  UNL1        0.0686
     14 C          -9.0306  -15.8324   21.4689 C.ar    1  UNL1        0.0134
     15 C          -8.2472  -16.0394   22.7312 C.ar    1  UNL1        0.0376
     16 C          -8.9518  -16.4355   23.9947 C.ar    1  UNL1        0.1387
     17 C         -10.4398  -16.6246   23.9960 C.ar    1  UNL1        0.0376
     18 C         -11.2233  -16.4176   22.7336 C.ar    1  UNL1        0.0134
     19 N         -12.0854  -15.6075   18.9455 N.1     1  UNL1       -0.1908
     20 C         -11.3020  -15.8145   20.2078 C.1     1  UNL1        0.1004
     21 C          -1.5060  -17.8992   20.6112 C.3     1  UNL1        0.0737
     22 C          -2.0490  -18.7927   19.5356 C.3     1  UNL1        0.0362
     23 C          -3.5295  -18.9949   19.4051 C.3     1  UNL1        0.0929
     24 N          -4.2407  -19.9436   20.3239 N.3     1  UNL1       -0.1793
     25 H          -3.8209  -19.8303   21.2465 H       1  UNL1        0.1488
     26 S          -5.7257  -19.8379   20.5079 S.O2    1  UNL1        0.0602
     27 O          -5.5733  -18.4017   20.9126 O.2     1  UNL1       -0.1530
     28 O          -5.8781  -21.2742   20.1033 O.2     1  UNL1       -0.1530
     29 C          -7.2106  -19.7323   20.6920 C.ar    1  UNL1        0.1221
     30 C          -7.7966  -19.7262   22.0727 C.ar    1  UNL1        0.0222
     31 C          -9.2815  -19.6205   22.2568 C.ar    1  UNL1        0.0310
     32 C         -10.1804  -19.5209   21.0601 C.ar    1  UNL1        0.1402
     33 F         -11.6653  -19.4152   21.2442 F       1  UNL1       -0.2042
     34 C          -9.5943  -19.5270   19.6793 C.ar    1  UNL1        0.0310
     35 C          -8.1094  -19.6326   19.4953 C.ar    1  UNL1        0.0222
@<TRIPOS>BOND
     1    19    20    3
     2    20    13    1
     3    13    14   ar
     4    14    15   ar
     5    15    16   ar
     6    16    12    1
     7    12    11    1
     8    11    10    1
     9    10     1    1
    10     1     2    1
    11     2     3    1
    12     3     4    1
    13     4     5    1
    14     5    21    1
    15    21    22    1
    16    22    23    1
    17    23    24    1
    18    24    26    1
    19    26    27    2
    20    26    28    2
    21    26    29    1
    22    29    30   ar
    23    30    31   ar
    24    31    32   ar
    25    32    33    1
    26    32    34   ar
    27    34    35   ar
    28     5     6    1
    29     6     7    1
    30     7     8    1
    31     7     9    1
    32    16    17   ar
    33    17    18   ar
    34    18    13   ar
    35     8     1    1
    36     9     3    1
    37    35    29   ar
    38    24    25    1
@<TRIPOS>MOLECULE
*****
 35 38 0 0 0
SMALL
GASTEIGER

@<TRIPOS>ATOM
      1 N          -9.3959  -17.6435   25.5403 N.3     1  UNL1       -0.2653
      2 C          -9.2380  -16.5769   24.4976 C.3     1  UNL1        0.1036
      3 C          -9.5845  -16.8688   23.0677 C.3     1  UNL1        0.1470
      4 C          -9.9311  -17.1607   21.6377 C.3     1  UNL1        0.1035
      5 N         -10.4356  -18.5192   21.2506 N.3     1  UNL1       -0.2685
      6 C         -10.5936  -19.5858   22.2934 C.3     1  UNL1        0.1035
      7 C         -10.2470  -19.2939   23.7233 C.3     1  UNL1        0.1470
      8 C          -9.9005  -19.0020   25.1532 C.3     1  UNL1        0.1036
      9 O         -10.0891  -18.2273   22.6806 O.3     1  UNL1       -0.3530
     10 C          -9.0494  -17.3516   26.9703 C.3     1  UNL1        0.1202
     11 C          -8.3688  -16.0640   27.3293 C.3     1  UNL1        0.2226
     12 O          -6.8754  -16.0166   27.4621 O.3     1  UNL1       -0.4740
     13 C          -4.2882  -16.0111   23.7802 C.ar    1  UNL1        0.0686
     14 C          -3.9550  -16.9154   24.9297 C.ar    1  UNL1        0.0134
     15 C          -4.8174  -16.9172   26.1570 C.ar    1  UNL1        0.0376
     16 C          -6.0130  -16.0148   26.2348 C.ar    1  UNL1        0.1387
     17 C          -6.3463  -15.1105   25.0854 C.ar    1  UNL1        0.0376
     18 C          -5.4839  -15.1087   23.8581 C.ar    1  UNL1        0.0134
     19 N          -2.5634  -16.0075   21.3257 N.1     1  UNL1       -0.1908
     20 C          -3.4258  -16.0093   22.5530 C.1     1  UNL1        0.1004
     21 C         -10.7822  -18.8111   19.8207 C.3     1  UNL1        0.0737
     22 C         -10.0016  -19.8375   19.0542 C.3     1  UNL1        0.0362
     23 C          -8.5021  -19.8032   19.0676 C.3     1  UNL1        0.0929
     24 N          -7.7640  -19.7843   20.3733 N.3     1  UNL1       -0.1793
     25 H          -7.9455  -20.6795   20.8271 H       1  UNL1        0.1488
     26 S          -6.2776  -19.5829   20.3918 S.O2    1  UNL1        0.0602
     27 O          -6.0755  -21.0628   20.2535 O.2     1  UNL1       -0.1530
     28 O          -6.4798  -18.1031   20.5300 O.2     1  UNL1       -0.1530
     29 C          -4.7914  -19.3817   20.4102 C.ar    1  UNL1        0.1221
     30 C          -4.0905  -18.8563   19.1926 C.ar    1  UNL1        0.0222
     31 C          -2.6041  -18.6549   19.2110 C.ar    1  UNL1        0.0310
     32 C          -1.8187  -18.9791   20.4472 C.ar    1  UNL1        0.1402
     33 F          -0.3324  -18.7778   20.4656 F       1  UNL1       -0.2042
     34 C          -2.5196  -19.5045   21.6648 C.ar    1  UNL1        0.0310
     35 C          -4.0059  -19.7058   21.6464 C.ar    1  UNL1        0.0222
@<TRIPOS>BOND
     1    19    20    3
     2    20    13    1
     3    13    14   ar
     4    14    15   ar
     5    15    16   ar
     6    16    12    1
     7    12    11    1
     8    11    10    1
     9    10     1    1
    10     1     2    1
    11     2     3    1
    12     3     4    1
    13     4     5    1
    14     5    21    1
    15    21    22    1
    16    22    23    1
    17    23    24    1
    18    24    26    1
    19    26    27    2
    20    26    28    2
    21    26    29    1
    22    29    30   ar
    23    30    31   ar
    24    31    32   ar
    25    32    33    1
    26    32    34   ar
    27    34    35   ar
    28     5     6    1
    29     6     7    1
    30     7     8    1
    31     7     9    1
    32    16    17   ar
    33    17    18   ar
    34    18    13   ar
    35     8     1    1
    36     9     3    1
    37    35    29   ar
    38    24    25    1
@<TRIPOS>MOLECULE
*****
 35 38 0 0 0
SMALL
GASTEIGER

@<TRIPOS>ATOM
      1 N          -9.2290  -17.2142   25.7774 N.3     1  UNL1       -0.2653
      2 C          -9.8760  -18.5422   25.5169 C.3     1  UNL1        0.1036
      3 C         -10.5272  -18.8122   24.1929 C.3     1  UNL1        0.1470
      4 C         -11.1785  -19.0824   22.8689 C.3     1  UNL1        0.1035
      5 N         -11.1829  -18.0245   21.8055 N.3     1  UNL1       -0.2685
      6 C         -10.5359  -16.6964   22.0661 C.3     1  UNL1        0.1035
      7 C          -9.8846  -16.4264   23.3901 C.3     1  UNL1        0.1470
      8 C          -9.2334  -16.1563   24.7140 C.3     1  UNL1        0.1036
      9 O         -10.5315  -17.7543   23.1295 O.3     1  UNL1       -0.3530
     10 C          -8.5777  -16.9441   27.1014 C.3     1  UNL1        0.1202
     11 C          -7.8192  -15.6682   27.3177 C.3     1  UNL1        0.2226
     12 O          -6.3196  -15.6840   27.3529 O.3     1  UNL1       -0.4740
     13 C          -3.9850  -16.2150   23.5427 C.ar    1  UNL1        0.0686
     14 C          -5.0420  -15.1544   23.6331 C.ar    1  UNL1        0.0134
     15 C          -5.8201  -14.9774   24.9032 C.ar    1  UNL1        0.0376
     16 C          -5.5415  -15.8610   26.0829 C.ar    1  UNL1        0.1387
     17 C          -4.4846  -16.9215   25.9925 C.ar    1  UNL1        0.0376
     18 C          -3.7063  -17.0986   24.7224 C.ar    1  UNL1        0.0134
     19 N          -2.4287  -16.5690   21.0026 N.1     1  UNL1       -0.1908
     20 C          -3.2068  -16.3920   22.2727 C.1     1  UNL1        0.1004
     21 C         -11.8341  -18.2945   20.4816 C.3     1  UNL1        0.0737
     22 C         -11.0631  -18.9795   19.3923 C.3     1  UNL1        0.0362
     23 C          -9.6334  -19.3727   19.6187 C.3     1  UNL1        0.0929
     24 N          -8.7348  -18.4946   20.4380 N.3     1  UNL1       -0.1793
     25 H          -9.1368  -18.4541   21.3746 H       1  UNL1        0.1488
     26 S          -7.2867  -18.8494   20.6032 S.O2    1  UNL1        0.0602
     27 O          -7.4893  -20.0704   19.7558 O.2     1  UNL1       -0.1530
     28 O          -7.0842  -17.6284   21.4505 O.2     1  UNL1       -0.1530
     29 C          -5.8387  -19.2042   20.7683 C.ar    1  UNL1        0.1221
     30 C          -4.9492  -19.3047   19.5647 C.ar    1  UNL1        0.0222
     31 C          -3.5011  -19.6596   19.7298 C.ar    1  UNL1        0.0310
     32 C          -2.9426  -19.9138   21.0986 C.ar    1  UNL1        0.1402
     33 F          -1.4946  -20.2687   21.2637 F       1  UNL1       -0.2042
     34 C          -3.8322  -19.8133   22.3022 C.ar    1  UNL1        0.0310
     35 C          -5.2802  -19.4585   22.1370 C.ar    1  UNL1        0.0222
@<TRIPOS>BOND
     1    19    20    3
     2    20    13    1
     3    13    14   ar
     4    14    15   ar
     5    15    16   ar
     6    16    12    1
     7    12    11    1
     8    11    10    1
     9    10     1    1
    10     1     2    1
    11     2     3    1
    12     3     4    1
    13     4     5    1
    14     5    21    1
    15    21    22    1
    16    22    23    1
    17    23    24    1
    18    24    26    1
    19    26    27    2
    20    26    28    2
    21    26    29    1
    22    29    30   ar
    23    30    31   ar
    24    31    32   ar
    25    32    33    1
    26    32    34   ar
    27    34    35   ar
    28     5     6    1
    29     6     7    1
    30     7     8    1
    31     7     9    1
    32    16    17   ar
    33    17    18   ar
    34    18    13   ar
    35     8     1    1
    36     9     3    1
    37    35    29   ar
    38    24    25    1
@<TRIPOS>MOLECULE
*****
 35 38 0 0 0
SMALL
GASTEIGER

@<TRIPOS>ATOM
      1 N           7.9523   -5.0221   22.5386 N.3     1  UNL1       -0.2653
      2 C           7.3076   -4.5797   23.8187 C.3     1  UNL1        0.1036
      3 C           7.5351   -5.3575   25.0809 C.3     1  UNL1        0.1470
      4 C           7.7626   -6.1354   26.3432 C.3     1  UNL1        0.1035
      5 N           8.6348   -7.3556   26.3253 N.3     1  UNL1       -0.2685
      6 C           9.2796   -7.7979   25.0452 C.3     1  UNL1        0.1035
      7 C           9.0521   -7.0201   23.7830 C.3     1  UNL1        0.1470
      8 C           8.8246   -6.2423   22.5208 C.3     1  UNL1        0.1036
      9 O           8.4073   -6.5777   25.0630 O.3     1  UNL1       -0.3530
     10 C           7.7248   -4.2443   21.2763 C.3     1  UNL1        0.1202
     11 C           6.3570   -4.1933   20.6630 C.3     1  UNL1        0.2226
     12 O           6.0077   -3.0986   19.6987 O.3     1  UNL1       -0.4740
     13 C           2.2595   -0.6820   20.2996 C.ar    1  UNL1        0.0686
     14 C           2.8556   -0.8134   18.9294 C.ar    1  UNL1        0.0134
     15 C           4.1049   -1.6190   18.7291 C.ar    1  UNL1        0.0376
     16 C           4.7583   -2.2931   19.8990 C.ar    1  UNL1        0.1387
     17 C           4.1623   -2.1617   21.2692 C.ar    1  UNL1        0.0376
     18 C           2.9129   -1.3561   21.4695 C.ar    1  UNL1        0.0134
     19 N          -0.2392    0.9291   20.7002 N.1     1  UNL1       -0.1908
     20 C           1.0102    0.1235   20.4999 C.1     1  UNL1        0.1004
     21 C           8.8623   -8.1334   27.5875 C.3     1  UNL1        0.0737
     22 C           8.6638   -9.6202   27.5984 C.3     1  UNL1        0.0362
     23 C           7.3178  -10.1948   27.9272 C.3     1  UNL1        0.0929
     24 N           7.1401  -11.6811   28.0235 N.3     1  UNL1       -0.1793
     25 H           7.6772  -11.9900   28.8337 H       1  UNL1        0.1488
     26 S           5.7655  -12.2643   28.1673 S.O2    1  UNL1        0.0602
     27 O           5.2251  -11.2201   27.2360 O.2     1  UNL1       -0.1530
     28 O           6.3060  -13.3085   29.0986 O.2     1  UNL1       -0.1530
     29 C           4.3911  -12.8474   28.3111 C.ar    1  UNL1        0.1221
     30 C           3.9612  -13.9810   27.4278 C.ar    1  UNL1        0.0222
     31 C           2.5867  -14.5642   27.5715 C.ar    1  UNL1        0.0310
     32 C           1.6421  -14.0138   28.5986 C.ar    1  UNL1        0.1402
     33 F           0.2676  -14.5970   28.7423 F       1  UNL1       -0.2042
     34 C           2.0720  -12.8802   29.4819 C.ar    1  UNL1        0.0310
     35 C           3.4465  -12.2971   29.3381 C.ar    1  UNL1        0.0222
@<TRIPOS>BOND
     1    19    20    3
     2    20    13    1
     3    13    14   ar
     4    14    15   ar
     5    15    16   ar
     6    16    12    1
     7    12    11    1
     8    11    10    1
     9    10     1    1
    10     1     2    1
    11     2     3    1
    12     3     4    1
    13     4     5    1
    14     5    21    1
    15    21    22    1
    16    22    23    1
    17    23    24    1
    18    24    26    1
    19    26    27    2
    20    26    28    2
    21    26    29    1
    22    29    30   ar
    23    30    31   ar
    24    31    32   ar
    25    32    33    1
    26    32    34   ar
    27    34    35   ar
    28     5     6    1
    29     6     7    1
    30     7     8    1
    31     7     9    1
    32    16    17   ar
    33    17    18   ar
    34    18    13   ar
    35     8     1    1
    36     9     3    1
    37    35    29   ar
    38    24    25    1
@<TRIPOS>MOLECULE
*****
 35 38 0 0 0
SMALL
GASTEIGER

@<TRIPOS>ATOM
      1 N           6.3338   -3.1802   27.6473 N.3     1  UNL1       -0.2653
      2 C           6.5385   -3.7627   29.0143 C.3     1  UNL1        0.1036
      3 C           7.2491   -5.0742   29.1720 C.3     1  UNL1        0.1470
      4 C           7.9597   -6.3858   29.3297 C.3     1  UNL1        0.1035
      5 N           8.4657   -7.1148   28.1204 N.3     1  UNL1       -0.2685
      6 C           8.2611   -6.5323   26.7533 C.3     1  UNL1        0.1035
      7 C           7.5505   -5.2207   26.5957 C.3     1  UNL1        0.1470
      8 C           6.8398   -3.9092   26.4380 C.3     1  UNL1        0.1036
      9 O           7.7551   -5.8032   27.9627 O.3     1  UNL1       -0.3530
     10 C           5.6232   -1.8686   27.4896 C.3     1  UNL1        0.1202
     11 C           5.2819   -1.3605   26.1202 C.3     1  UNL1        0.2226
     12 O           4.0810   -1.8968   25.3989 O.3     1  UNL1       -0.4740
     13 C           3.8462   -1.6311   20.9129 C.ar    1  UNL1        0.0686
     14 C           4.4704   -2.8310   21.5615 C.ar    1  UNL1        0.0134
     15 C           4.5486   -2.9195   23.0569 C.ar    1  UNL1        0.0376
     16 C           4.0027   -1.8082   23.9036 C.ar    1  UNL1        0.1387
     17 C           3.3786   -0.6084   23.2550 C.ar    1  UNL1        0.0376
     18 C           3.3003   -0.5197   21.7596 C.ar    1  UNL1        0.0134
     19 N           3.6897   -1.4540   17.9223 N.1     1  UNL1       -0.1908
     20 C           3.7680   -1.5425   19.4176 C.1     1  UNL1        0.1004
     21 C           9.1764   -8.4263   28.2781 C.3     1  UNL1        0.0737
     22 C           8.6617   -9.6475   27.5753 C.3     1  UNL1        0.0362
     23 C           7.3165  -10.2071   27.9320 C.3     1  UNL1        0.0929
     24 N           7.1372  -11.6883   28.0856 N.3     1  UNL1       -0.1793
     25 H           7.6529  -11.9622   28.9220 H       1  UNL1        0.1488
     26 S           5.7597  -12.2674   28.2174 S.O2    1  UNL1        0.0602
     27 O           6.2819  -13.2899   29.1826 O.2     1  UNL1       -0.1530
     28 O           5.2375  -11.2449   27.2521 O.2     1  UNL1       -0.1530
     29 C           4.3823  -12.8465   28.3491 C.ar    1  UNL1        0.1221
     30 C           3.9566  -13.9785   27.4617 C.ar    1  UNL1        0.0222
     31 C           2.5792  -14.5576   27.5934 C.ar    1  UNL1        0.0310
     32 C           1.6274  -14.0048   28.6125 C.ar    1  UNL1        0.1402
     33 F           0.2501  -14.5839   28.7443 F       1  UNL1       -0.2042
     34 C           2.0532  -12.8728   29.4999 C.ar    1  UNL1        0.0310
     35 C           3.4306  -12.2937   29.3682 C.ar    1  UNL1        0.0222
@<TRIPOS>BOND
     1    19    20    3
     2    20    13    1
     3    13    14   ar
     4    14    15   ar
     5    15    16   ar
     6    16    12    1
     7    12    11    1
     8    11    10    1
     9    10     1    1
    10     1     2    1
    11     2     3    1
    12     3     4    1
    13     4     5    1
    14     5    21    1
    15    21    22    1
    16    22    23    1
    17    23    24    1
    18    24    26    1
    19    26    27    2
    20    26    28    2
    21    26    29    1
    22    29    30   ar
    23    30    31   ar
    24    31    32   ar
    25    32    33    1
    26    32    34   ar
    27    34    35   ar
    28     5     6    1
    29     6     7    1
    30     7     8    1
    31     7     9    1
    32    16    17   ar
    33    17    18   ar
    34    18    13   ar
    35     8     1    1
    36     9     3    1
    37    35    29   ar
    38    24    25    1
@<TRIPOS>MOLECULE
*****
 35 38 0 0 0
SMALL
GASTEIGER

@<TRIPOS>ATOM
      1 N         -11.1661   -0.8398   17.3498 N.3     1  UNL1       -0.2653
      2 C         -10.4198   -1.5372   16.2514 C.3     1  UNL1        0.1036
      3 C          -9.9842   -2.9617   16.4277 C.3     1  UNL1        0.1470
      4 C          -9.5486   -4.3862   16.6039 C.3     1  UNL1        0.1035
      5 N          -9.8593   -5.1133   17.8786 N.3     1  UNL1       -0.2685
      6 C         -10.6057   -4.4158   18.9770 C.3     1  UNL1        0.1035
      7 C         -11.0413   -2.9913   18.8008 C.3     1  UNL1        0.1470
      8 C         -11.4768   -1.5669   18.6245 C.3     1  UNL1        0.1036
      9 O         -10.2950   -3.6887   17.7023 O.3     1  UNL1       -0.3530
     10 C         -11.6017    0.5847   17.1736 C.3     1  UNL1        0.1202
     11 C         -13.0556    0.9414   17.2670 C.3     1  UNL1        0.2226
     12 O         -13.7112    1.0719   18.6099 O.3     1  UNL1       -0.4740
     13 C         -17.1181   -1.6486   19.7244 C.ar    1  UNL1        0.0686
     14 C         -15.9032   -2.2076   19.0449 C.ar    1  UNL1        0.0134
     15 C         -14.7676   -1.3008   18.6734 C.ar    1  UNL1        0.0376
     16 C         -14.8468    0.1651   18.9814 C.ar    1  UNL1        0.1387
     17 C         -16.0615    0.7242   19.6609 C.ar    1  UNL1        0.0376
     18 C         -17.1972   -0.1827   20.0325 C.ar    1  UNL1        0.0134
     19 N         -19.3892   -3.4622   20.4675 N.1     1  UNL1       -0.1908
     20 C         -18.2536   -2.5554   20.0959 C.1     1  UNL1        0.1004
     21 C          -9.4238   -6.5378   18.0548 C.3     1  UNL1        0.0737
     22 C         -10.4352   -7.6440   17.9968 C.3     1  UNL1        0.0362
     23 C         -11.4579   -7.6684   16.8998 C.3     1  UNL1        0.0929
     24 N         -12.5755   -6.6680   16.8939 N.3     1  UNL1       -0.1793
     25 H         -12.8529   -6.5421   15.9204 H       1  UNL1        0.1488
     26 S         -13.8300   -6.9403   17.6699 S.O2    1  UNL1        0.0602
     27 O         -13.8311   -5.5243   18.1649 O.2     1  UNL1       -0.1530
     28 O         -13.8289   -8.3562   17.1749 O.2     1  UNL1       -0.1530
     29 C         -15.0844   -7.2125   18.4459 C.ar    1  UNL1        0.1221
     30 C         -15.4120   -8.6120   18.8751 C.ar    1  UNL1        0.0222
     31 C         -16.6665   -8.8843   19.6511 C.ar    1  UNL1        0.0310
     32 C         -17.5934   -7.7570   19.9979 C.ar    1  UNL1        0.1402
     33 F         -18.8478   -8.0293   20.7739 F       1  UNL1       -0.2042
     34 C         -17.2657   -6.3575   19.5687 C.ar    1  UNL1        0.0310
     35 C         -16.0113   -6.0853   18.7927 C.ar    1  UNL1        0.0222
@<TRIPOS>BOND
     1    19    20    3
     2    20    13    1
     3    13    14   ar
     4    14    15   ar
     5    15    16   ar
     6    16    12    1
     7    12    11    1
     8    11    10    1
     9    10     1    1
    10     1     2    1
    11     2     3    1
    12     3     4    1
    13     4     5    1
    14     5    21    1
    15    21    22    1
    16    22    23    1
    17    23    24    1
    18    24    26    1
    19    26    27    2
    20    26    28    2
    21    26    29    1
    22    29    30   ar
    23    30    31   ar
    24    31    32   ar
    25    32    33    1
    26    32    34   ar
    27    34    35   ar
    28     5     6    1
    29     6     7    1
    30     7     8    1
    31     7     9    1
    32    16    17   ar
    33    17    18   ar
    34    18    13   ar
    35     8     1    1
    36     9     3    1
    37    35    29   ar
    38    24    25    1
@<TRIPOS>MOLECULE
*****
 35 38 0 0 0
SMALL
GASTEIGER

@<TRIPOS>ATOM
      1 N         -11.4952   -6.6929   18.3390 N.3     1  UNL1       -0.2653
      2 C         -12.0406   -7.6656   17.3359 C.3     1  UNL1        0.1036
      3 C         -13.5040   -7.9945   17.3291 C.3     1  UNL1        0.1470
      4 C         -14.9676   -8.3234   17.3222 C.3     1  UNL1        0.1035
      5 N         -15.8856   -7.6795   18.3185 N.3     1  UNL1       -0.2685
      6 C         -15.3402   -6.7067   19.3217 C.3     1  UNL1        0.1035
      7 C         -13.8767   -6.3779   19.3285 C.3     1  UNL1        0.1470
      8 C         -12.4133   -6.0490   19.3353 C.3     1  UNL1        0.1036
      9 O         -14.4221   -7.3506   18.3254 O.3     1  UNL1       -0.3530
     10 C         -10.0317   -6.3639   18.3459 C.3     1  UNL1        0.1202
     11 C          -9.5795   -4.9615   18.6261 C.3     1  UNL1        0.2226
     12 O          -9.6232   -3.9281   17.5397 O.3     1  UNL1       -0.4740
     13 C         -12.2795   -0.3214   17.9705 C.ar    1  UNL1        0.0686
     14 C         -12.3720   -1.4437   18.9615 C.ar    1  UNL1        0.0134
     15 C         -11.4866   -2.6459   18.8179 C.ar    1  UNL1        0.0376
     16 C         -10.5087   -2.7259   17.6833 C.ar    1  UNL1        0.1387
     17 C         -10.4162   -1.6037   16.6923 C.ar    1  UNL1        0.0376
     18 C         -11.3016   -0.4014   16.8359 C.ar    1  UNL1        0.0134
     19 N         -14.0503    2.0831   18.2577 N.1     1  UNL1       -0.1908
     20 C         -13.1649    0.8809   18.1141 C.1     1  UNL1        0.1004
     21 C         -17.3491   -8.0084   18.3117 C.3     1  UNL1        0.0737
     22 C         -18.1481   -7.9002   19.5766 C.3     1  UNL1        0.0362
     23 C         -19.0420   -6.7166   19.8002 C.3     1  UNL1        0.0929
     24 N         -19.0807   -5.6053   18.7935 N.3     1  UNL1       -0.1793
     25 H         -20.0619   -5.4538   18.5598 H       1  UNL1        0.1488
     26 S         -18.5048   -4.2631   19.1355 S.O2    1  UNL1        0.0602
     27 O         -19.4426   -4.1579   20.3014 O.2     1  UNL1       -0.1530
     28 O         -17.5669   -4.3684   17.9697 O.2     1  UNL1       -0.1530
     29 C         -17.9290   -2.9210   19.4776 C.ar    1  UNL1        0.1221
     30 C         -16.4528   -2.6849   19.3548 C.ar    1  UNL1        0.0222
     31 C         -15.8769   -1.3427   19.6968 C.ar    1  UNL1        0.0310
     32 C         -16.7772   -0.2366   20.1616 C.ar    1  UNL1        0.1402
     33 F         -16.2014    1.1055   20.5037 F       1  UNL1       -0.2042
     34 C         -18.2535   -0.4728   20.2844 C.ar    1  UNL1        0.0310
     35 C         -18.8293   -1.8149   19.9424 C.ar    1  UNL1        0.0222
@<TRIPOS>BOND
     1    19    20    3
     2    20    13    1
     3    13    14   ar
     4    14    15   ar
     5    15    16   ar
     6    16    12    1
     7    12    11    1
     8    11    10    1
     9    10     1    1
    10     1     2    1
    11     2     3    1
    12     3     4    1
    13     4     5    1
    14     5    21    1
    15    21    22    1
    16    22    23    1
    17    23    24    1
    18    24    26    1
    19    26    27    2
    20    26    28    2
    21    26    29    1
    22    29    30   ar
    23    30    31   ar
    24    31    32   ar
    25    32    33    1
    26    32    34   ar
    27    34    35   ar
    28     5     6    1
    29     6     7    1
    30     7     8    1
    31     7     9    1
    32    16    17   ar
    33    17    18   ar
    34    18    13   ar
    35     8     1    1
    36     9     3    1
    37    35    29   ar
    38    24    25    1
@<TRIPOS>MOLECULE
*****
 35 38 0 0 0
SMALL
GASTEIGER

@<TRIPOS>ATOM
      1 N           6.8302   -4.7004   26.1833 N.3     1  UNL1       -0.2653
      2 C           6.9459   -5.8663   27.1199 C.3     1  UNL1        0.1036
      3 C           6.8777   -5.6471   28.6022 C.3     1  UNL1        0.1470
      4 C           6.8095   -5.4279   30.0846 C.3     1  UNL1        0.1035
      5 N           6.6255   -4.0428   30.6302 N.3     1  UNL1       -0.2685
      6 C           6.5098   -2.8769   29.6935 C.3     1  UNL1        0.1035
      7 C           6.5780   -3.0961   28.2112 C.3     1  UNL1        0.1470
      8 C           6.6463   -3.3153   26.7289 C.3     1  UNL1        0.1036
      9 O           6.6938   -4.2620   29.1478 O.3     1  UNL1       -0.3530
     10 C           6.8985   -4.9196   24.7009 C.3     1  UNL1        0.1202
     11 C           6.3292   -3.8955   23.7643 C.3     1  UNL1        0.2226
     12 O           5.5937   -4.3326   22.5322 O.3     1  UNL1       -0.4740
     13 C           2.8188   -1.4766   20.4362 C.ar    1  UNL1        0.0686
     14 C           3.1147   -1.2995   21.8961 C.ar    1  UNL1        0.0134
     15 C           4.0397   -2.2515   22.5947 C.ar    1  UNL1        0.0376
     16 C           4.6688   -3.3806   21.8335 C.ar    1  UNL1        0.1387
     17 C           4.3729   -3.5577   20.3738 C.ar    1  UNL1        0.0376
     18 C           3.4479   -2.6057   19.6750 C.ar    1  UNL1        0.0134
     19 N           0.9689    0.4273   19.0389 N.1     1  UNL1       -0.1908
     20 C           1.8938   -0.5246   19.7375 C.1     1  UNL1        0.1004
     21 C           6.5573   -3.8236   32.1125 C.3     1  UNL1        0.0737
     22 C           6.3243   -2.4454   32.6570 C.3     1  UNL1        0.0362
     23 C           4.9410   -2.0178   33.0488 C.3     1  UNL1        0.0929
     24 N           4.5641   -0.5666   33.0055 N.3     1  UNL1       -0.1793
     25 H           5.4135   -0.0484   32.7809 H       1  UNL1        0.1488
     26 S           3.5047   -0.0948   32.0540 S.O2    1  UNL1        0.0602
     27 O           3.0919   -1.5159   31.8092 O.2     1  UNL1       -0.1530
     28 O           3.9176    1.3263   32.2988 O.2     1  UNL1       -0.1530
     29 C           2.4454    0.3769   31.1026 C.ar    1  UNL1        0.1221
     30 C           2.0990   -0.4466   29.8976 C.ar    1  UNL1        0.0222
     31 C           1.0396    0.0251   28.9461 C.ar    1  UNL1        0.0310
     32 C           0.3266    1.3202   29.1997 C.ar    1  UNL1        0.1402
     33 F          -0.7327    1.7919   28.2483 F       1  UNL1       -0.2042
     34 C           0.6730    2.1437   30.4047 C.ar    1  UNL1        0.0310
     35 C           1.7324    1.6720   31.3561 C.ar    1  UNL1        0.0222
@<TRIPOS>BOND
     1    19    20    3
     2    20    13    1
     3    13    14   ar
     4    14    15   ar
     5    15    16   ar
     6    16    12    1
     7    12    11    1
     8    11    10    1
     9    10     1    1
    10     1     2    1
    11     2     3    1
    12     3     4    1
    13     4     5    1
    14     5    21    1
    15    21    22    1
    16    22    23    1
    17    23    24    1
    18    24    26    1
    19    26    27    2
    20    26    28    2
    21    26    29    1
    22    29    30   ar
    23    30    31   ar
    24    31    32   ar
    25    32    33    1
    26    32    34   ar
    27    34    35   ar
    28     5     6    1
    29     6     7    1
    30     7     8    1
    31     7     9    1
    32    16    17   ar
    33    17    18   ar
    34    18    13   ar
    35     8     1    1
    36     9     3    1
    37    35    29   ar
    38    24    25    1
