@<TRIPOS>MOLECULE
*****
 30 33 0 0 0
SMALL
GASTEIGER

@<TRIPOS>ATOM
      1 C          -0.1807    2.4073   27.2913 C.ar    1  UNL1        0.1708
      2 N          -1.4647    3.0345   26.8354 N.ar    1  UNL1       -0.1943
      3 C          -1.8541    2.9788   25.3879 C.ar    1  UNL1        0.2240
      4 N          -0.9596    2.2958   24.3963 N.ar    1  UNL1       -0.1807
      5 C           0.3244    1.6686   24.8522 C.ar    1  UNL1        0.2240
      6 N           0.7138    1.7244   26.2997 N.ar    1  UNL1       -0.1943
      7 N           1.3769    2.6303   33.0813 N.pl3   1  UNL1       -0.3275
      8 C           0.9875    2.5746   31.6338 C.ar    1  UNL1        0.2136
      9 N           1.3939    3.6798   30.7047 N.ar    1  UNL1       -0.2124
     10 C           1.0045    3.6240   29.2572 C.ar    1  UNL1        0.1062
     11 C           0.2087    2.4631   28.7388 C.ar    1  UNL1        0.0742
     12 C          -0.1978    1.3579   29.6679 C.ar    1  UNL1        0.1322
     13 N           0.1917    1.4136   31.1154 N.ar    1  UNL1       -0.2127
     14 H           1.8992    3.3923   33.4215 H       1  UNL1        0.1452
     15 H           1.1101    1.9049   33.6911 H       1  UNL1        0.1452
     16 C          -0.9936    0.1968   29.1495 C.3     1  UNL1        0.3584
     17 F          -2.4368    0.0471   29.5301 F       1  UNL1       -0.1915
     18 F          -0.3463   -0.8145   28.2506 F       1  UNL1       -0.1915
     19 N          -3.1382    3.6060   24.9319 N.pl3   1  UNL1       -0.2729
     20 C          -3.3705    3.8634   23.4726 C.3     1  UNL1        0.1257
     21 C          -4.6545    4.4907   23.0167 C.3     1  UNL1        0.1637
     22 O          -5.7063    4.8605   24.0202 O.3     1  UNL1       -0.3501
     23 C          -5.4740    4.6030   25.4796 C.3     1  UNL1        0.1637
     24 C          -4.1900    3.9758   25.9354 C.3     1  UNL1        0.1257
     25 N           1.2191    0.9856   23.8607 N.pl3   1  UNL1       -0.2729
     26 C           2.3941    0.1847   24.3380 C.3     1  UNL1        0.1257
     27 C           3.2888   -0.4983   23.3465 C.3     1  UNL1        0.1637
     28 O           3.0084   -0.3804   21.8776 O.3     1  UNL1       -0.3501
     29 C           1.8334    0.4205   21.4003 C.3     1  UNL1        0.1637
     30 C           0.9387    1.1035   22.3919 C.3     1  UNL1        0.1257
@<TRIPOS>BOND
     1     7     8    1
     2     8     9   ar
     3     9    10   ar
     4    10    11   ar
     5    11     1    1
     6     1     2   ar
     7     2     3   ar
     8     3    19    1
     9    19    20    1
    10    20    21    1
    11    21    22    1
    12    22    23    1
    13    23    24    1
    14     3     4   ar
    15     4     5   ar
    16     5    25    1
    17    25    26    1
    18    26    27    1
    19    27    28    1
    20    28    29    1
    21    29    30    1
    22     5     6   ar
    23    11    12   ar
    24    12    16    1
    25    16    17    1
    26    16    18    1
    27    12    13   ar
    28    13     8   ar
    29     6     1   ar
    30    24    19    1
    31    30    25    1
    32     7    14    1
    33     7    15    1
@<TRIPOS>MOLECULE
*****
 30 33 0 0 0
SMALL
GASTEIGER

@<TRIPOS>ATOM
      1 C          -0.1395    2.4537   27.3578 C.ar    1  UNL1        0.1708
      2 N           0.7558    1.7644   26.3713 N.ar    1  UNL1       -0.1943
      3 C           0.3758    1.7143   24.9211 C.ar    1  UNL1        0.2240
      4 N          -0.8994    2.3535   24.4573 N.ar    1  UNL1       -0.1807
      5 C          -1.7947    3.0428   25.4438 C.ar    1  UNL1        0.2240
      6 N          -1.4148    3.0929   26.8940 N.ar    1  UNL1       -0.1943
      7 N           1.3803    2.6541   33.1586 N.pl3   1  UNL1       -0.3275
      8 C           1.0003    2.6040   31.7084 C.ar    1  UNL1        0.2136
      9 N           1.3801    3.7310   30.7942 N.ar    1  UNL1       -0.2124
     10 C           1.0001    3.6808   29.3440 C.ar    1  UNL1        0.1062
     11 C           0.2404    2.5038   28.8080 C.ar    1  UNL1        0.0742
     12 C          -0.1393    1.3769   29.7222 C.ar    1  UNL1        0.1322
     13 N           0.2406    1.4270   31.1724 N.ar    1  UNL1       -0.2127
     14 H           1.8789    3.4267   33.5105 H       1  UNL1        0.1452
     15 H           1.1310    1.9144   33.7586 H       1  UNL1        0.1452
     16 C          -0.8990    0.1997   29.1861 C.3     1  UNL1        0.3584
     17 F          -0.1927   -0.8380   28.3650 F       1  UNL1       -0.1915
     18 F          -2.3651    0.0604   29.4713 F       1  UNL1       -0.1915
     19 N           1.2712    1.0249   23.9345 N.pl3   1  UNL1       -0.2729
     20 C           2.4207    0.1921   24.4194 C.3     1  UNL1        0.1257
     21 C           3.3161   -0.4973   23.4329 C.3     1  UNL1        0.1637
     22 O           3.0619   -0.3538   21.9615 O.3     1  UNL1       -0.3501
     23 C           1.9123    0.4790   21.4767 C.3     1  UNL1        0.1637
     24 C           1.0170    1.1683   22.4632 C.3     1  UNL1        0.1257
     25 N          -3.0701    3.6821   24.9801 N.pl3   1  UNL1       -0.2729
     26 C          -4.1533    3.9979   25.9685 C.3     1  UNL1        0.1257
     27 C          -5.4285    4.6371   25.5049 C.3     1  UNL1        0.1637
     28 O          -5.6207    4.9606   24.0528 O.3     1  UNL1       -0.3501
     29 C          -4.5375    4.6448   23.0644 C.3     1  UNL1        0.1637
     30 C          -3.2621    4.0055   23.5281 C.3     1  UNL1        0.1257
@<TRIPOS>BOND
     1     7     8    1
     2     8     9   ar
     3     9    10   ar
     4    10    11   ar
     5    11     1    1
     6     1     2   ar
     7     2     3   ar
     8     3    19    1
     9    19    20    1
    10    20    21    1
    11    21    22    1
    12    22    23    1
    13    23    24    1
    14     3     4   ar
    15     4     5   ar
    16     5    25    1
    17    25    26    1
    18    26    27    1
    19    27    28    1
    20    28    29    1
    21    29    30    1
    22     5     6   ar
    23    11    12   ar
    24    12    16    1
    25    16    17    1
    26    16    18    1
    27    12    13   ar
    28    13     8   ar
    29     6     1   ar
    30    24    19    1
    31    30    25    1
    32     7    14    1
    33     7    15    1
@<TRIPOS>MOLECULE
*****
 30 33 0 0 0
SMALL
GASTEIGER

@<TRIPOS>ATOM
      1 C           2.0299    0.7523   27.2364 C.ar    1  UNL1        0.1708
      2 N           3.0688   -0.2544   26.8399 N.ar    1  UNL1       -0.1943
      3 C           3.2738   -0.5903   25.3924 C.ar    1  UNL1        0.2240
      4 N           2.4400    0.0806   24.3414 N.ar    1  UNL1       -0.1807
      5 C           1.4012    1.0874   24.7379 C.ar    1  UNL1        0.2240
      6 N           1.1961    1.4232   26.1854 N.ar    1  UNL1       -0.1943
      7 N           1.2098    2.0957   33.0262 N.pl3   1  UNL1       -0.3275
      8 C           1.4149    1.7599   31.5788 C.ar    1  UNL1        0.2136
      9 N           2.7817    1.8669   30.9703 N.ar    1  UNL1       -0.2124
     10 C           2.9867    1.5310   29.5229 C.ar    1  UNL1        0.1062
     11 C           1.8249    1.0882   28.6838 C.ar    1  UNL1        0.0742
     12 C           0.4581    0.9812   29.2923 C.ar    1  UNL1        0.1322
     13 N           0.2530    1.3171   30.7397 N.ar    1  UNL1       -0.2127
     14 H           1.9724    2.3864   33.5769 H       1  UNL1        0.1452
     15 H           0.3127    2.0255   33.4256 H       1  UNL1        0.1452
     16 C          -0.7038    0.5383   28.4532 C.3     1  UNL1        0.3584
     17 F          -1.4933    1.5473   27.6731 F       1  UNL1       -0.1915
     18 F          -1.0762   -0.9135   28.3944 F       1  UNL1       -0.1915
     19 N           4.3127   -1.5971   24.9960 N.pl3   1  UNL1       -0.2729
     20 C           4.2509   -2.2464   23.6452 C.3     1  UNL1        0.1257
     21 C           5.2898   -3.2532   23.2488 C.3     1  UNL1        0.1637
     22 O           6.3905   -3.6106   24.2031 O.3     1  UNL1       -0.3501
     23 C           6.4523   -2.9612   25.5539 C.3     1  UNL1        0.1637
     24 C           5.4134   -1.9545   25.9503 C.3     1  UNL1        0.1257
     25 N           0.5673    1.7583   23.6869 N.pl3   1  UNL1       -0.2729
     26 C           0.6988    1.3479   22.2501 C.3     1  UNL1        0.1257
     27 C          -0.1350    2.0188   21.1991 C.3     1  UNL1        0.1637
     28 O          -1.1004    3.1002   21.5849 O.3     1  UNL1       -0.3501
     29 C          -1.2320    3.5105   23.0217 C.3     1  UNL1        0.1637
     30 C          -0.3981    2.8396   24.0727 C.3     1  UNL1        0.1257
@<TRIPOS>BOND
     1     7     8    1
     2     8     9   ar
     3     9    10   ar
     4    10    11   ar
     5    11     1    1
     6     1     2   ar
     7     2     3   ar
     8     3    19    1
     9    19    20    1
    10    20    21    1
    11    21    22    1
    12    22    23    1
    13    23    24    1
    14     3     4   ar
    15     4     5   ar
    16     5    25    1
    17    25    26    1
    18    26    27    1
    19    27    28    1
    20    28    29    1
    21    29    30    1
    22     5     6   ar
    23    11    12   ar
    24    12    16    1
    25    16    17    1
    26    16    18    1
    27    12    13   ar
    28    13     8   ar
    29     6     1   ar
    30    24    19    1
    31    30    25    1
    32     7    14    1
    33     7    15    1
@<TRIPOS>MOLECULE
*****
 30 33 0 0 0
SMALL
GASTEIGER

@<TRIPOS>ATOM
      1 C           1.1366    2.4502   29.9595 C.ar    1  UNL1        0.1708
      2 N           2.0259    1.3747   30.5095 N.ar    1  UNL1       -0.1943
      3 C           2.3597    1.3524   31.9717 C.ar    1  UNL1        0.2240
      4 N           1.8043    2.4056   32.8839 N.ar    1  UNL1       -0.1807
      5 C           0.9151    3.4811   32.3339 C.ar    1  UNL1        0.2240
      6 N           0.5812    3.5034   30.8717 N.ar    1  UNL1       -0.1943
      7 N          -0.1987    2.5394   24.1107 N.pl3   1  UNL1       -0.3275
      8 C           0.1351    2.5171   25.5729 C.ar    1  UNL1        0.2136
      9 N           1.0527    3.5546   26.1486 N.ar    1  UNL1       -0.2124
     10 C           1.3865    3.5323   27.6108 C.ar    1  UNL1        0.1062
     11 C           0.8028    2.4725   28.4973 C.ar    1  UNL1        0.0742
     12 C          -0.1148    1.4349   27.9216 C.ar    1  UNL1        0.1322
     13 N          -0.4486    1.4572   26.4594 N.ar    1  UNL1       -0.2127
     14 H           0.1844    3.2350   23.5288 H       1  UNL1        0.1452
     15 H          -0.8010    1.8583   23.7328 H       1  UNL1        0.1452
     16 C          -0.6985    0.3750   28.8081 C.3     1  UNL1        0.3584
     17 F          -2.1363    0.4564   29.2277 F       1  UNL1       -0.1915
     18 F           0.1555   -0.7664   29.2749 F       1  UNL1       -0.1915
     19 N           3.2490    0.2768   32.5216 N.pl3   1  UNL1       -0.2729
     20 C           3.8329    0.4164   33.8962 C.3     1  UNL1        0.1257
     21 C           4.7222   -0.6591   34.4461 C.3     1  UNL1        0.1637
     22 O           5.0275   -1.8743   33.6214 O.3     1  UNL1       -0.3501
     23 C           4.4436   -2.0139   32.2468 C.3     1  UNL1        0.1637
     24 C           3.5543   -0.9383   31.6969 C.3     1  UNL1        0.1257
     25 N           0.3596    4.5344   33.2462 N.pl3   1  UNL1       -0.2729
     26 C          -0.9297    5.2198   32.9030 C.3     1  UNL1        0.1257
     27 C          -1.4852    6.2731   33.8151 C.3     1  UNL1        0.1637
     28 O          -0.7513    6.6409   35.0706 O.3     1  UNL1       -0.3501
     29 C           0.5380    5.9555   35.4139 C.3     1  UNL1        0.1637
     30 C           1.0935    4.9022   34.5016 C.3     1  UNL1        0.1257
@<TRIPOS>BOND
     1     7     8    1
     2     8     9   ar
     3     9    10   ar
     4    10    11   ar
     5    11     1    1
     6     1     2   ar
     7     2     3   ar
     8     3    19    1
     9    19    20    1
    10    20    21    1
    11    21    22    1
    12    22    23    1
    13    23    24    1
    14     3     4   ar
    15     4     5   ar
    16     5    25    1
    17    25    26    1
    18    26    27    1
    19    27    28    1
    20    28    29    1
    21    29    30    1
    22     5     6   ar
    23    11    12   ar
    24    12    16    1
    25    16    17    1
    26    16    18    1
    27    12    13   ar
    28    13     8   ar
    29     6     1   ar
    30    24    19    1
    31    30    25    1
    32     7    14    1
    33     7    15    1
@<TRIPOS>MOLECULE
*****
 30 33 0 0 0
SMALL
GASTEIGER

@<TRIPOS>ATOM
      1 C           1.1418    2.4667   29.9666 C.ar    1  UNL1        0.1708
      2 N           0.5846    3.5196   30.8781 N.ar    1  UNL1       -0.1943
      3 C           0.9156    3.4968   32.3410 C.ar    1  UNL1        0.2240
      4 N           1.8037    2.4211   32.8923 N.ar    1  UNL1       -0.1807
      5 C           2.3609    1.3682   31.9808 C.ar    1  UNL1        0.2240
      6 N           2.0299    1.3910   30.5179 N.ar    1  UNL1       -0.1943
      7 N          -0.1821    2.5580   24.1152 N.pl3   1  UNL1       -0.3275
      8 C           0.1489    2.5352   25.5780 C.ar    1  UNL1        0.2136
      9 N           1.0613    3.5756   26.1569 N.ar    1  UNL1       -0.2124
     10 C           1.3923    3.5527   27.6197 C.ar    1  UNL1        0.1062
     11 C           0.8108    2.4896   28.5037 C.ar    1  UNL1        0.0742
     12 C          -0.1016    1.4492   27.9249 C.ar    1  UNL1        0.1322
     13 N          -0.4326    1.4720   26.4621 N.ar    1  UNL1       -0.2127
     14 H           0.1995    3.2559   23.5350 H       1  UNL1        0.1452
     15 H          -0.7810    1.8752   23.7353 H       1  UNL1        0.1452
     16 C          -0.6832    0.3860   28.8089 C.3     1  UNL1        0.3584
     17 F           0.1750   -0.7512   29.2784 F       1  UNL1       -0.1915
     18 F          -2.1228    0.4600   29.2235 F       1  UNL1       -0.1915
     19 N           0.3584    4.5498   33.2525 N.pl3   1  UNL1       -0.2729
     20 C           1.0896    4.9168   34.5097 C.3     1  UNL1        0.1257
     21 C           0.5324    5.9698   35.4213 C.3     1  UNL1        0.1637
     22 O          -0.7561    6.6556   35.0756 O.3     1  UNL1       -0.3501
     23 C          -1.4873    6.2885   33.8183 C.3     1  UNL1        0.1637
     24 C          -0.9301    5.2356   32.9068 C.3     1  UNL1        0.1257
     25 N           3.2491    0.2924   32.5321 N.pl3   1  UNL1       -0.2729
     26 C           3.5607   -0.9198   31.7053 C.3     1  UNL1        0.1257
     27 C           4.4488   -1.9955   32.2565 C.3     1  UNL1        0.1637
     28 O           5.0254   -1.8592   33.6346 O.3     1  UNL1       -0.3501
     29 C           4.7138   -0.6470   34.4614 C.3     1  UNL1        0.1637
     30 C           3.8256    0.4288   33.9101 C.3     1  UNL1        0.1257
@<TRIPOS>BOND
     1     7     8    1
     2     8     9   ar
     3     9    10   ar
     4    10    11   ar
     5    11     1    1
     6     1     2   ar
     7     2     3   ar
     8     3    19    1
     9    19    20    1
    10    20    21    1
    11    21    22    1
    12    22    23    1
    13    23    24    1
    14     3     4   ar
    15     4     5   ar
    16     5    25    1
    17    25    26    1
    18    26    27    1
    19    27    28    1
    20    28    29    1
    21    29    30    1
    22     5     6   ar
    23    11    12   ar
    24    12    16    1
    25    16    17    1
    26    16    18    1
    27    12    13   ar
    28    13     8   ar
    29     6     1   ar
    30    24    19    1
    31    30    25    1
    32     7    14    1
    33     7    15    1
@<TRIPOS>MOLECULE
*****
 30 33 0 0 0
SMALL
GASTEIGER

@<TRIPOS>ATOM
      1 C          -4.7035  -17.5134   22.0930 C.ar    1  UNL1        0.1708
      2 N          -5.0734  -16.8237   23.3727 N.ar    1  UNL1       -0.1943
      3 C          -6.5030  -16.8008   23.8262 C.ar    1  UNL1        0.2240
      4 N          -7.5627  -17.4675   23.0000 N.ar    1  UNL1       -0.1807
      5 C          -7.1928  -18.1571   21.7204 C.ar    1  UNL1        0.2240
      6 N          -5.7631  -18.1801   21.2669 N.ar    1  UNL1       -0.1943
      7 N           1.0150  -17.6052   20.2790 N.pl3   1  UNL1       -0.3275
      8 C          -0.4146  -17.5822   20.7325 C.ar    1  UNL1        0.2136
      9 N          -1.0611  -16.2823   21.1095 N.ar    1  UNL1       -0.2124
     10 C          -2.4907  -16.2593   21.5630 C.ar    1  UNL1        0.1062
     11 C          -3.2738  -17.5363   21.6395 C.ar    1  UNL1        0.0742
     12 C          -2.6274  -18.8363   21.2626 C.ar    1  UNL1        0.1322
     13 N          -1.1977  -18.8592   20.8091 N.ar    1  UNL1       -0.2127
     14 H           1.5290  -16.7670   20.2288 H       1  UNL1        0.1452
     15 H           1.4393  -18.4584   20.0316 H       1  UNL1        0.1452
     16 C          -3.4105  -20.1134   21.3392 C.3     1  UNL1        0.3584
     17 F          -3.5249  -20.9965   20.1321 F       1  UNL1       -0.1915
     18 F          -4.0792  -20.5073   22.6228 F       1  UNL1       -0.1915
     19 N          -6.8729  -16.1111   25.1059 N.pl3   1  UNL1       -0.2729
     20 C          -8.3114  -16.0230   25.5217 C.3     1  UNL1        0.1257
     21 C          -8.6813  -15.3333   26.8015 C.3     1  UNL1        0.1637
     22 O          -7.6127  -14.7318   27.6652 O.3     1  UNL1       -0.3501
     23 C          -6.1741  -14.8198   27.2493 C.3     1  UNL1        0.1637
     24 C          -5.8043  -15.5095   25.9696 C.3     1  UNL1        0.1257
     25 N          -8.2525  -18.8239   20.8942 N.pl3   1  UNL1       -0.2729
     26 C          -9.6818  -18.8025   21.3486 C.3     1  UNL1        0.1257
     27 C         -10.7415  -19.4692   20.5225 C.3     1  UNL1        0.1637
     28 O         -10.3719  -20.1573   19.2419 O.3     1  UNL1       -0.3501
     29 C          -8.9425  -20.1787   18.7874 C.3     1  UNL1        0.1637
     30 C          -7.8828  -19.5119   19.6136 C.3     1  UNL1        0.1257
@<TRIPOS>BOND
     1     7     8    1
     2     8     9   ar
     3     9    10   ar
     4    10    11   ar
     5    11     1    1
     6     1     2   ar
     7     2     3   ar
     8     3    19    1
     9    19    20    1
    10    20    21    1
    11    21    22    1
    12    22    23    1
    13    23    24    1
    14     3     4   ar
    15     4     5   ar
    16     5    25    1
    17    25    26    1
    18    26    27    1
    19    27    28    1
    20    28    29    1
    21    29    30    1
    22     5     6   ar
    23    11    12   ar
    24    12    16    1
    25    16    17    1
    26    16    18    1
    27    12    13   ar
    28    13     8   ar
    29     6     1   ar
    30    24    19    1
    31    30    25    1
    32     7    14    1
    33     7    15    1
@<TRIPOS>MOLECULE
*****
 30 33 0 0 0
SMALL
GASTEIGER

@<TRIPOS>ATOM
      1 C          -4.7030  -17.5113   22.0971 C.ar    1  UNL1        0.1708
      2 N          -5.7619  -18.1784   21.2702 N.ar    1  UNL1       -0.1943
      3 C          -7.1919  -18.1555   21.7224 C.ar    1  UNL1        0.2240
      4 N          -7.5631  -17.4656   23.0016 N.ar    1  UNL1       -0.1807
      5 C          -6.5042  -16.7985   23.8284 C.ar    1  UNL1        0.2240
      6 N          -5.0742  -16.8214   23.3762 N.ar    1  UNL1       -0.1943
      7 N           1.0171  -17.6028   20.2881 N.pl3   1  UNL1       -0.3275
      8 C          -0.4130  -17.5800   20.7404 C.ar    1  UNL1        0.2136
      9 N          -1.0594  -16.2803   21.1183 N.ar    1  UNL1       -0.2124
     10 C          -2.4894  -16.2574   21.5705 C.ar    1  UNL1        0.1062
     11 C          -3.2730  -17.5342   21.6449 C.ar    1  UNL1        0.0742
     12 C          -2.6266  -18.8339   21.2670 C.ar    1  UNL1        0.1322
     13 N          -1.1966  -18.8568   20.8147 N.ar    1  UNL1       -0.2127
     14 H           1.5314  -16.7648   20.2393 H       1  UNL1        0.1452
     15 H           1.4413  -18.4559   20.0401 H       1  UNL1        0.1452
     16 C          -3.4102  -20.1109   21.3413 C.3     1  UNL1        0.3584
     17 F          -3.5246  -20.9920   20.1329 F       1  UNL1       -0.1915
     18 F          -4.0794  -20.5066   22.6242 F       1  UNL1       -0.1915
     19 N          -8.2508  -18.8226   20.8955 N.pl3   1  UNL1       -0.2729
     20 C          -7.8794  -19.5138   19.6171 C.3     1  UNL1        0.1257
     21 C          -8.9383  -20.1809   18.7902 C.3     1  UNL1        0.1637
     22 O         -10.3686  -20.1568   19.2416 O.3     1  UNL1       -0.3501
     23 C         -10.7399  -19.4656   20.5201 C.3     1  UNL1        0.1637
     24 C          -9.6810  -18.7985   21.3470 C.3     1  UNL1        0.1257
     25 N          -6.8753  -16.1086   25.1076 N.pl3   1  UNL1       -0.2729
     26 C          -5.8078  -15.5039   25.9706 C.3     1  UNL1        0.1257
     27 C          -6.1789  -14.8139   27.2498 C.3     1  UNL1        0.1637
     28 O          -7.6175  -14.7286   27.6660 O.3     1  UNL1       -0.3501
     29 C          -8.6850  -15.3333   26.8030 C.3     1  UNL1        0.1637
     30 C          -8.3139  -16.0233   25.5238 C.3     1  UNL1        0.1257
@<TRIPOS>BOND
     1     7     8    1
     2     8     9   ar
     3     9    10   ar
     4    10    11   ar
     5    11     1    1
     6     1     2   ar
     7     2     3   ar
     8     3    19    1
     9    19    20    1
    10    20    21    1
    11    21    22    1
    12    22    23    1
    13    23    24    1
    14     3     4   ar
    15     4     5   ar
    16     5    25    1
    17    25    26    1
    18    26    27    1
    19    27    28    1
    20    28    29    1
    21    29    30    1
    22     5     6   ar
    23    11    12   ar
    24    12    16    1
    25    16    17    1
    26    16    18    1
    27    12    13   ar
    28    13     8   ar
    29     6     1   ar
    30    24    19    1
    31    30    25    1
    32     7    14    1
    33     7    15    1
@<TRIPOS>MOLECULE
*****
 30 33 0 0 0
SMALL
GASTEIGER

@<TRIPOS>ATOM
      1 C           0.3432    1.8858   27.1194 C.ar    1  UNL1        0.1708
      2 N           0.6126    1.6421   25.6641 N.ar    1  UNL1       -0.1943
      3 C          -0.2091    2.3411   24.6219 C.ar    1  UNL1        0.2240
      4 N          -1.3003    3.2837   25.0351 N.ar    1  UNL1       -0.1807
      5 C          -1.5697    3.5274   26.4904 C.ar    1  UNL1        0.2240
      6 N          -0.7480    2.8284   27.5325 N.ar    1  UNL1       -0.1943
      7 N           3.6303   -0.9102   31.2881 N.pl3   1  UNL1       -0.3275
      8 C           2.8085   -0.2112   30.2459 C.ar    1  UNL1        0.2136
      9 N           3.4484    0.7969   29.3380 N.ar    1  UNL1       -0.2124
     10 C           2.6266    1.4958   28.2958 C.ar    1  UNL1        0.1062
     11 C           1.1650    1.1868   28.1616 C.ar    1  UNL1        0.0742
     12 C           0.5251    0.1787   29.0695 C.ar    1  UNL1        0.1322
     13 N           1.3469   -0.5203   30.1116 N.ar    1  UNL1       -0.2127
     14 H           4.5896   -0.7073   31.3762 H       1  UNL1        0.1452
     15 H           3.2103   -1.5718   31.8840 H       1  UNL1        0.1452
     16 C          -0.9366   -0.1304   28.9353 C.3     1  UNL1        0.3584
     17 F          -1.9411    0.6242   29.7547 F       1  UNL1       -0.1915
     18 F          -1.3937   -1.1941   27.9816 F       1  UNL1       -0.1915
     19 N           0.0603    2.0974   23.1665 N.pl3   1  UNL1       -0.2729
     20 C           1.0686    1.0668   22.7527 C.3     1  UNL1        0.1257
     21 C           1.3380    0.8232   21.2973 C.3     1  UNL1        0.1637
     22 O           0.5992    1.6101   20.2558 O.3     1  UNL1       -0.3501
     23 C          -0.4091    2.6407   20.6696 C.3     1  UNL1        0.1637
     24 C          -0.6785    2.8844   22.1250 C.3     1  UNL1        0.1257
     25 N          -2.6609    4.4700   26.9036 N.pl3   1  UNL1       -0.2729
     26 C          -2.3185    5.7585   27.5911 C.3     1  UNL1        0.1257
     27 C          -3.4096    6.7012   28.0043 C.3     1  UNL1        0.1637
     28 O          -4.8433    6.3554   27.7301 O.3     1  UNL1       -0.3501
     29 C          -5.1857    5.0669   27.0426 C.3     1  UNL1        0.1637
     30 C          -4.0945    4.1242   26.6294 C.3     1  UNL1        0.1257
@<TRIPOS>BOND
     1     7     8    1
     2     8     9   ar
     3     9    10   ar
     4    10    11   ar
     5    11     1    1
     6     1     2   ar
     7     2     3   ar
     8     3    19    1
     9    19    20    1
    10    20    21    1
    11    21    22    1
    12    22    23    1
    13    23    24    1
    14     3     4   ar
    15     4     5   ar
    16     5    25    1
    17    25    26    1
    18    26    27    1
    19    27    28    1
    20    28    29    1
    21    29    30    1
    22     5     6   ar
    23    11    12   ar
    24    12    16    1
    25    16    17    1
    26    16    18    1
    27    12    13   ar
    28    13     8   ar
    29     6     1   ar
    30    24    19    1
    31    30    25    1
    32     7    14    1
    33     7    15    1
@<TRIPOS>MOLECULE
*****
 30 33 0 0 0
SMALL
GASTEIGER

@<TRIPOS>ATOM
      1 C           3.5115    0.0878   32.1556 C.ar    1  UNL1        0.1708
      2 N           2.6086    0.2580   30.9700 N.ar    1  UNL1       -0.1943
      3 C           1.5462    1.3169   30.9821 C.ar    1  UNL1        0.2240
      4 N           1.3867    2.2055   32.1799 N.ar    1  UNL1       -0.1807
      5 C           2.2896    2.0353   33.3656 C.ar    1  UNL1        0.2240
      6 N           3.3519    0.9764   33.3534 N.ar    1  UNL1       -0.1943
      7 N           7.7610   -4.1477   32.1070 N.pl3   1  UNL1       -0.3275
      8 C           6.6986   -3.0888   32.1191 C.ar    1  UNL1        0.2136
      9 N           5.4141   -3.3236   32.8573 N.ar    1  UNL1       -0.2124
     10 C           4.3518   -2.2647   32.8695 C.ar    1  UNL1        0.1062
     11 C           4.5738   -0.9711   32.1434 C.ar    1  UNL1        0.0742
     12 C           5.8583   -0.7364   31.4052 C.ar    1  UNL1        0.1322
     13 N           6.9207   -1.7952   31.3931 N.ar    1  UNL1       -0.2127
     14 H           7.6152   -4.9968   32.5835 H       1  UNL1        0.1452
     15 H           8.6040   -3.9936   31.6224 H       1  UNL1        0.1452
     16 C           6.0804    0.5573   30.6791 C.3     1  UNL1        0.3584
     17 F           6.3352    0.5536   29.2010 F       1  UNL1       -0.1915
     18 F           6.0478    1.8547   31.4313 F       1  UNL1       -0.1915
     19 N           0.6433    1.4871   29.7964 N.pl3   1  UNL1       -0.2729
     20 C          -0.4348    0.4804   29.5241 C.3     1  UNL1        0.1257
     21 C          -1.3377    0.6506   28.3383 C.3     1  UNL1        0.1637
     22 O          -1.1623    1.8275   27.4249 O.3     1  UNL1       -0.3501
     23 C          -0.0841    2.8341   27.6973 C.3     1  UNL1        0.1637
     24 C           0.8187    2.6639   28.8830 C.3     1  UNL1        0.1257
     25 N           2.1301    2.9239   34.5635 N.pl3   1  UNL1       -0.2729
     26 C           2.6566    2.4856   35.8979 C.3     1  UNL1        0.1257
     27 C           2.4971    3.3742   37.0958 C.3     1  UNL1        0.1637
     28 O           1.8111    4.7012   36.9593 O.3     1  UNL1       -0.3501
     29 C           1.2846    5.1395   35.6249 C.3     1  UNL1        0.1637
     30 C           1.4441    4.2508   34.4270 C.3     1  UNL1        0.1257
@<TRIPOS>BOND
     1     7     8    1
     2     8     9   ar
     3     9    10   ar
     4    10    11   ar
     5    11     1    1
     6     1     2   ar
     7     2     3   ar
     8     3    19    1
     9    19    20    1
    10    20    21    1
    11    21    22    1
    12    22    23    1
    13    23    24    1
    14     3     4   ar
    15     4     5   ar
    16     5    25    1
    17    25    26    1
    18    26    27    1
    19    27    28    1
    20    28    29    1
    21    29    30    1
    22     5     6   ar
    23    11    12   ar
    24    12    16    1
    25    16    17    1
    26    16    18    1
    27    12    13   ar
    28    13     8   ar
    29     6     1   ar
    30    24    19    1
    31    30    25    1
    32     7    14    1
    33     7    15    1
