@<TRIPOS>MOLECULE
*****
 41 46 0 0 0
SMALL
GASTEIGER

@<TRIPOS>ATOM
      1 C           5.8285   -2.1478   18.9656 C.2     1  UNL1        0.2252
      2 O           6.2052   -2.7257   17.6336 O.2     1  UNL1       -0.2749
      3 N           4.7416   -1.1180   19.0560 N.am    1  UNL1       -0.2794
      4 C           4.0314   -0.6661   17.8144 C.3     1  UNL1        0.0953
      5 C           2.9445    0.3637   17.9048 C.3     1  UNL1        0.0442
      6 C           2.5678    0.9416   19.2369 C.3     1  UNL1        0.0933
      7 C           3.2780    0.4897   20.4783 C.3     1  UNL1        0.0442
      8 C           4.3649   -0.5401   20.3879 C.3     1  UNL1        0.0953
      9 N           1.4809    1.9714   19.3272 N.ar    1  UNL1       -0.2814
     10 C           0.1362    1.7805   19.9639 C.ar    1  UNL1        0.3365
     11 O          -0.3577    0.5263   20.6220 O.2     1  UNL1       -0.2459
     12 N          -0.6278    3.0641   19.8270 N.ar    1  UNL1       -0.2420
     13 C           0.2446    4.0482   19.1057 C.ar    1  UNL1        0.0877
     14 C           0.0207    5.4720   18.6902 C.ar    1  UNL1        0.0488
     15 C           1.1001    6.2205   17.9659 C.ar    1  UNL1        0.1417
     16 F           0.8762    7.6443   17.5504 F       1  UNL1       -0.2041
     17 C           2.4034    5.5452   17.6570 C.ar    1  UNL1        0.0312
     18 C           2.6273    4.1214   18.0725 C.ar    1  UNL1        0.0211
     19 C           1.5479    3.3729   18.7968 C.ar    1  UNL1        0.0801
     20 C          -2.0200    3.3188   20.3240 C.ar    1  UNL1        0.1705
     21 C          -3.1114    3.6632   19.3542 C.ar    1  UNL1        0.1363
     22 N          -4.5035    3.9179   19.8513 N.ar    1  UNL1       -0.2375
     23 C          -4.8043    3.8282   21.3181 C.ar    1  UNL1        0.1196
     24 C          -3.7130    3.4839   22.2878 C.ar    1  UNL1        0.1212
     25 N          -2.3208    3.2292   21.7907 N.ar    1  UNL1       -0.2231
     26 N           7.9590   -3.5035   22.6902 N.3     1  UNL1       -0.2689
     27 C           8.6146   -2.5194   21.7672 C.3     1  UNL1        0.0729
     28 C           7.9045   -2.0675   20.5257 C.3     1  UNL1        0.0264
     29 C           6.5387   -2.5997   20.2071 C.3     1  UNL1        0.0795
     30 C           5.8831   -3.5837   21.1301 C.3     1  UNL1        0.0264
     31 C           6.5932   -4.0356   22.3716 C.3     1  UNL1        0.0729
     32 C           8.6692   -3.9554   23.9318 C.3     1  UNL1        0.0993
     33 N           5.7409   -5.7576   27.8276 N.pl3   1  UNL1       -0.3426
     34 C           6.6666   -6.0090   26.6743 C.ar    1  UNL1        0.1251
     35 C           7.2051   -4.8565   25.8796 C.ar    1  UNL1        0.0310
     36 C           8.1308   -5.1080   24.7264 C.ar    1  UNL1       -0.0018
     37 C           8.5180   -6.5121   24.3679 C.ar    1  UNL1        0.0179
     38 C           7.9795   -7.6647   25.1626 C.ar    1  UNL1        0.1000
     39 N           7.0538   -7.4131   26.3158 N.ar    1  UNL1       -0.2296
     40 H           5.4868   -4.8360   28.0629 H       1  UNL1        0.1437
     41 H           5.3875   -6.5141   28.3491 H       1  UNL1        0.1437
@<TRIPOS>BOND
     1    33    34    1
     2    34    35   ar
     3    35    36   ar
     4    36    32    1
     5    32    26    1
     6    26    27    1
     7    27    28    1
     8    28    29    1
     9    29     1    1
    10     1     2    2
    11     1     3   am
    12     3     4    1
    13     4     5    1
    14     5     6    1
    15     6     9    1
    16     9    10   ar
    17    10    11    2
    18    10    12   ar
    19    12    20    1
    20    20    21   ar
    21    21    22   ar
    22    22    23   ar
    23    23    24   ar
    24    24    25   ar
    25    12    13   ar
    26    13    14   ar
    27    14    15   ar
    28    15    16    1
    29    15    17   ar
    30    17    18   ar
    31    18    19   ar
    32     6     7    1
    33     7     8    1
    34    29    30    1
    35    30    31    1
    36    36    37   ar
    37    37    38   ar
    38    38    39   ar
    39    39    34   ar
    40    31    26    1
    41     8     3    1
    42    19     9   ar
    43    25    20   ar
    44    19    13   ar
    45    33    40    1
    46    33    41    1
@<TRIPOS>MOLECULE
*****
 41 46 0 0 0
SMALL
GASTEIGER

@<TRIPOS>ATOM
      1 C           6.7317   -4.2217   31.2230 C.2     1  UNL1        0.2252
      2 O           6.8717   -5.6052   31.7854 O.2     1  UNL1       -0.2749
      3 N           6.6327   -4.0217   29.7397 N.am    1  UNL1       -0.2794
      4 C           6.6739   -5.2050   28.8189 C.3     1  UNL1        0.0953
      5 C           6.5749   -5.0050   27.3356 C.3     1  UNL1        0.0442
      6 C           6.4349   -3.6214   26.7731 C.3     1  UNL1        0.0933
      7 C           6.3938   -2.4381   27.6939 C.3     1  UNL1        0.0442
      8 C           6.4927   -2.6382   29.1772 C.3     1  UNL1        0.0953
      9 N           6.3360   -3.4213   25.2898 N.ar    1  UNL1       -0.2814
     10 C           5.3376   -2.5543   24.5817 C.ar    1  UNL1        0.3365
     11 O           4.2628   -1.7350   25.2326 O.2     1  UNL1       -0.2459
     12 N           5.6027   -2.6503   23.1085 N.ar    1  UNL1       -0.2420
     13 C           6.7649   -3.5767   22.9060 C.ar    1  UNL1        0.0877
     14 C           7.4691   -4.0479   21.6682 C.ar    1  UNL1        0.0488
     15 C           8.6264   -4.9957   21.7786 C.ar    1  UNL1        0.1417
     16 F           9.3307   -5.4669   20.5408 F       1  UNL1       -0.2041
     17 C           9.0796   -5.4722   23.1268 C.ar    1  UNL1        0.0312
     18 C           8.3755   -5.0010   24.3645 C.ar    1  UNL1        0.0211
     19 C           7.2181   -4.0533   24.2541 C.ar    1  UNL1        0.0801
     20 C           4.8395   -1.9439   22.0274 C.ar    1  UNL1        0.1705
     21 C           4.8477   -0.4454   21.9601 C.ar    1  UNL1        0.1363
     22 N           4.0846    0.2610   20.8791 N.ar    1  UNL1       -0.2375
     23 C           3.3133   -0.5311   19.8653 C.ar    1  UNL1        0.1196
     24 C           3.3051   -2.0295   19.9326 C.ar    1  UNL1        0.1212
     25 N           4.0682   -2.7359   21.0137 N.ar    1  UNL1       -0.2231
     26 N           6.6083   -0.6716   33.9854 N.3     1  UNL1       -0.2689
     27 C           7.9150   -1.1248   33.4044 C.3     1  UNL1        0.0729
     28 C           7.9561   -2.3082   32.4836 C.3     1  UNL1        0.0264
     29 C           6.6906   -3.0383   32.1438 C.3     1  UNL1        0.0795
     30 C           5.3840   -2.5852   32.7248 C.3     1  UNL1        0.0264
     31 C           5.3429   -1.4018   33.6456 C.3     1  UNL1        0.0729
     32 C           6.5672    0.5118   34.9063 C.3     1  UNL1        0.0993
     33 N           3.1581    0.5682   38.8273 N.pl3   1  UNL1       -0.3426
     34 C           3.5558    0.9951   37.4454 C.ar    1  UNL1        0.1251
     35 C           4.8627    0.5400   36.8667 C.ar    1  UNL1        0.0310
     36 C           5.2603    0.9669   35.4848 C.ar    1  UNL1       -0.0018
     37 C           4.3510    1.8489   34.6816 C.ar    1  UNL1        0.0179
     38 C           3.0441    2.3040   35.2602 C.ar    1  UNL1        0.1000
     39 N           2.6465    1.8771   36.6421 N.ar    1  UNL1       -0.2296
     40 H           3.7549   -0.0107   39.3546 H       1  UNL1        0.1437
     41 H           2.3003    0.8669   39.2071 H       1  UNL1        0.1437
@<TRIPOS>BOND
     1    33    34    1
     2    34    35   ar
     3    35    36   ar
     4    36    32    1
     5    32    26    1
     6    26    27    1
     7    27    28    1
     8    28    29    1
     9    29     1    1
    10     1     2    2
    11     1     3   am
    12     3     4    1
    13     4     5    1
    14     5     6    1
    15     6     9    1
    16     9    10   ar
    17    10    11    2
    18    10    12   ar
    19    12    20    1
    20    20    21   ar
    21    21    22   ar
    22    22    23   ar
    23    23    24   ar
    24    24    25   ar
    25    12    13   ar
    26    13    14   ar
    27    14    15   ar
    28    15    16    1
    29    15    17   ar
    30    17    18   ar
    31    18    19   ar
    32     6     7    1
    33     7     8    1
    34    29    30    1
    35    30    31    1
    36    36    37   ar
    37    37    38   ar
    38    38    39   ar
    39    39    34   ar
    40    31    26    1
    41     8     3    1
    42    19     9   ar
    43    25    20   ar
    44    19    13   ar
    45    33    40    1
    46    33    41    1
@<TRIPOS>MOLECULE
*****
 41 46 0 0 0
SMALL
GASTEIGER

@<TRIPOS>ATOM
      1 C           7.7413   -2.4371   19.8922 C.2     1  UNL1        0.2252
      2 O           8.9377   -2.6165   19.0055 O.2     1  UNL1       -0.2749
      3 N           7.7867   -2.9046   21.3168 N.am    1  UNL1       -0.2794
      4 C           9.0286   -3.5516   21.8545 C.3     1  UNL1        0.0953
      5 C           9.0740   -4.0192   23.2791 C.3     1  UNL1        0.0442
      6 C           7.8775   -3.8398   24.1659 C.3     1  UNL1        0.0933
      7 C           6.6358   -3.1928   23.6281 C.3     1  UNL1        0.0442
      8 C           6.5903   -2.7252   22.2036 C.3     1  UNL1        0.0953
      9 N           7.9230   -4.3073   25.5904 N.ar    1  UNL1       -0.2814
     10 C           7.7812   -3.4419   26.8074 C.ar    1  UNL1        0.3365
     11 O           7.5690   -1.9570   26.8135 O.2     1  UNL1       -0.2459
     12 N           7.8888   -4.3222   28.0172 N.ar    1  UNL1       -0.2420
     13 C           8.0971   -5.7316   27.5479 C.ar    1  UNL1        0.0877
     14 C           8.2703   -7.0221   28.2925 C.ar    1  UNL1        0.0488
     15 C           8.4646   -8.3034   27.5373 C.ar    1  UNL1        0.1417
     16 F           8.6378   -9.5940   28.2820 F       1  UNL1       -0.2041
     17 C           8.4858   -8.2943   26.0375 C.ar    1  UNL1        0.0312
     18 C           8.3126   -7.0037   25.2929 C.ar    1  UNL1        0.0211
     19 C           8.1183   -5.7224   26.0481 C.ar    1  UNL1        0.0801
     20 C           7.8031   -3.8721   29.4455 C.ar    1  UNL1        0.1705
     21 C           9.0256   -3.8972   30.3144 C.ar    1  UNL1        0.1363
     22 N           8.9400   -3.4471   31.7427 N.ar    1  UNL1       -0.2375
     23 C           7.6318   -2.9719   32.3021 C.ar    1  UNL1        0.1196
     24 C           6.4094   -2.9467   31.4333 C.ar    1  UNL1        0.1212
     25 N           6.4951   -3.3969   30.0049 N.ar    1  UNL1       -0.2231
     26 N           4.0157   -0.4961   18.2790 N.3     1  UNL1       -0.2689
     27 C           4.2633   -1.9565   18.0421 C.3     1  UNL1        0.0729
     28 C           5.5052   -2.6035   18.5799 C.3     1  UNL1        0.0264
     29 C           6.4994   -1.7901   19.3545 C.3     1  UNL1        0.0795
     30 C           6.2518   -0.3297   19.5913 C.3     1  UNL1        0.0264
     31 C           5.0100    0.3173   19.0535 C.3     1  UNL1        0.0729
     32 C           2.7739    0.1509   17.7412 C.3     1  UNL1        0.0993
     33 N          -0.6747    3.7544   19.1980 N.pl3   1  UNL1       -0.3426
     34 C          -0.0196    2.4219   19.4111 C.ar    1  UNL1        0.1251
     35 C           1.0496    1.9526   18.4696 C.ar    1  UNL1        0.0310
     36 C           1.7046    0.6201   18.6827 C.ar    1  UNL1       -0.0018
     37 C           1.2904   -0.2431   19.8374 C.ar    1  UNL1        0.0179
     38 C           0.2212    0.2262   20.7789 C.ar    1  UNL1        0.1000
     39 N          -0.4339    1.5587   20.5658 N.ar    1  UNL1       -0.2296
     40 H          -0.4029    4.3210   18.4402 H       1  UNL1        0.1437
     41 H          -1.3765    4.0623   19.8160 H       1  UNL1        0.1437
@<TRIPOS>BOND
     1    33    34    1
     2    34    35   ar
     3    35    36   ar
     4    36    32    1
     5    32    26    1
     6    26    27    1
     7    27    28    1
     8    28    29    1
     9    29     1    1
    10     1     2    2
    11     1     3   am
    12     3     4    1
    13     4     5    1
    14     5     6    1
    15     6     9    1
    16     9    10   ar
    17    10    11    2
    18    10    12   ar
    19    12    20    1
    20    20    21   ar
    21    21    22   ar
    22    22    23   ar
    23    23    24   ar
    24    24    25   ar
    25    12    13   ar
    26    13    14   ar
    27    14    15   ar
    28    15    16    1
    29    15    17   ar
    30    17    18   ar
    31    18    19   ar
    32     6     7    1
    33     7     8    1
    34    29    30    1
    35    30    31    1
    36    36    37   ar
    37    37    38   ar
    38    38    39   ar
    39    39    34   ar
    40    31    26    1
    41     8     3    1
    42    19     9   ar
    43    25    20   ar
    44    19    13   ar
    45    33    40    1
    46    33    41    1
@<TRIPOS>MOLECULE
*****
 41 46 0 0 0
SMALL
GASTEIGER

@<TRIPOS>ATOM
      1 C           1.1482    1.3018   28.6435 C.2     1  UNL1        0.2252
      2 O          -0.1270    1.9629   29.0755 O.2     1  UNL1       -0.2749
      3 N           1.4004    1.0375   27.1886 N.am    1  UNL1       -0.2794
      4 C           0.3774    1.4343   26.1659 C.3     1  UNL1        0.0953
      5 C           0.6295    1.1700   24.7111 C.3     1  UNL1        0.0442
      6 C           1.9048    0.5088   24.2789 C.3     1  UNL1        0.0933
      7 C           2.9277    0.1121   25.3016 C.3     1  UNL1        0.0442
      8 C           2.6756    0.3764   26.7565 C.3     1  UNL1        0.0953
      9 N           2.1570    0.2445   22.8241 N.ar    1  UNL1       -0.2814
     10 C           3.1267   -0.7537   22.2645 C.ar    1  UNL1        0.3365
     11 O           4.0145   -1.6629   23.0614 O.2     1  UNL1       -0.2459
     12 N           3.0526   -0.6831   20.7680 N.ar    1  UNL1       -0.2420
     13 C           2.0372    0.3588   20.4027 C.ar    1  UNL1        0.0877
     14 C           1.5451    0.8595   19.0772 C.ar    1  UNL1        0.0488
     15 C           0.4995    1.9335   19.0224 C.ar    1  UNL1        0.1417
     16 F           0.0074    2.4342   17.6968 F       1  UNL1       -0.2041
     17 C          -0.0541    2.5068   20.2931 C.ar    1  UNL1        0.0312
     18 C           0.4380    2.0061   21.6187 C.ar    1  UNL1        0.0211
     19 C           1.4836    0.9321   21.6735 C.ar    1  UNL1        0.0801
     20 C           3.8535   -1.5093   19.8057 C.ar    1  UNL1        0.1705
     21 C           4.7878   -0.8414   18.8406 C.ar    1  UNL1        0.1363
     22 N           5.5886   -1.6676   17.8783 N.ar    1  UNL1       -0.2375
     23 C           5.4552   -3.1617   17.8809 C.ar    1  UNL1        0.1196
     24 C           4.5210   -3.8295   18.8459 C.ar    1  UNL1        0.1212
     25 N           3.7201   -3.0033   19.8082 N.ar    1  UNL1       -0.2231
     26 N           4.2174    0.1114   31.7116 N.3     1  UNL1       -0.2689
     27 C           3.1836   -0.8781   31.2616 C.3     1  UNL1        0.0729
     28 C           2.1606   -0.4813   30.2390 C.3     1  UNL1        0.0264
     29 C           2.1713    0.9050   29.6662 C.3     1  UNL1        0.0795
     30 C           3.2050    1.8945   30.1160 C.3     1  UNL1        0.0264
     31 C           4.2280    1.4977   31.1387 C.3     1  UNL1        0.0729
     32 C           5.2404   -0.2854   32.7343 C.3     1  UNL1        0.0993
     33 N           6.4544   -5.3245   32.3698 N.pl3   1  UNL1       -0.3426
     34 C           6.8433   -3.8818   32.2381 C.ar    1  UNL1        0.1251
     35 C           5.8474   -2.8049   32.5520 C.ar    1  UNL1        0.0310
     36 C           6.2363   -1.3622   32.4203 C.ar    1  UNL1       -0.0018
     37 C           7.6211   -0.9963   31.9747 C.ar    1  UNL1        0.0179
     38 C           8.6169   -2.0732   31.6608 C.ar    1  UNL1        0.1000
     39 N           8.2280   -3.5159   31.7925 N.ar    1  UNL1       -0.2296
     40 H           5.5456   -5.5647   32.6623 H       1  UNL1        0.1437
     41 H           7.1081   -6.0313   32.1637 H       1  UNL1        0.1437
@<TRIPOS>BOND
     1    33    34    1
     2    34    35   ar
     3    35    36   ar
     4    36    32    1
     5    32    26    1
     6    26    27    1
     7    27    28    1
     8    28    29    1
     9    29     1    1
    10     1     2    2
    11     1     3   am
    12     3     4    1
    13     4     5    1
    14     5     6    1
    15     6     9    1
    16     9    10   ar
    17    10    11    2
    18    10    12   ar
    19    12    20    1
    20    20    21   ar
    21    21    22   ar
    22    22    23   ar
    23    23    24   ar
    24    24    25   ar
    25    12    13   ar
    26    13    14   ar
    27    14    15   ar
    28    15    16    1
    29    15    17   ar
    30    17    18   ar
    31    18    19   ar
    32     6     7    1
    33     7     8    1
    34    29    30    1
    35    30    31    1
    36    36    37   ar
    37    37    38   ar
    38    38    39   ar
    39    39    34   ar
    40    31    26    1
    41     8     3    1
    42    19     9   ar
    43    25    20   ar
    44    19    13   ar
    45    33    40    1
    46    33    41    1
@<TRIPOS>MOLECULE
*****
 41 46 0 0 0
SMALL
GASTEIGER

@<TRIPOS>ATOM
      1 C           3.2227   -0.3087   30.5418 C.2     1  UNL1        0.2252
      2 O           1.8103    0.1754   30.3977 O.2     1  UNL1       -0.2749
      3 N           3.9415   -0.8871   29.3591 N.am    1  UNL1       -0.2794
      4 C           3.2481   -0.9814   28.0324 C.3     1  UNL1        0.0953
      5 C           3.9669   -1.5598   26.8498 C.3     1  UNL1        0.0442
      6 C           5.3794   -2.0439   26.9938 C.3     1  UNL1        0.0933
      7 C           6.0728   -1.9497   28.3205 C.3     1  UNL1        0.0442
      8 C           5.3539   -1.3713   29.5032 C.3     1  UNL1        0.0953
      9 N           6.0983   -2.6223   25.8112 N.ar    1  UNL1       -0.2814
     10 C           6.4024   -1.9073   24.5281 C.ar    1  UNL1        0.3365
     11 O           6.0410   -0.4884   24.2024 O.2     1  UNL1       -0.2459
     12 N           7.1313   -2.8604   23.6279 N.ar    1  UNL1       -0.2420
     13 C           7.2777   -4.1644   24.3547 C.ar    1  UNL1        0.0877
     14 C           7.9099   -5.4667   23.9621 C.ar    1  UNL1        0.0488
     15 C           7.9037   -6.6220   24.9188 C.ar    1  UNL1        0.1417
     16 F           8.5359   -7.9244   24.5263 F       1  UNL1       -0.2041
     17 C           7.2652   -6.4748   26.2682 C.ar    1  UNL1        0.0312
     18 C           6.6330   -5.1725   26.6608 C.ar    1  UNL1        0.0211
     19 C           6.6393   -4.0173   25.7040 C.ar    1  UNL1        0.0801
     20 C           7.6269   -2.5619   22.2440 C.ar    1  UNL1        0.1705
     21 C           6.7760   -2.8954   21.0544 C.ar    1  UNL1        0.1363
     22 N           7.2715   -2.5969   19.6705 N.ar    1  UNL1       -0.2375
     23 C           8.6179   -1.9649   19.4760 C.ar    1  UNL1        0.1196
     24 C           9.4687   -1.6314   20.6655 C.ar    1  UNL1        0.1212
     25 N           8.9732   -1.9299   22.0494 N.ar    1  UNL1       -0.2231
     26 N           5.3031   -0.0260   34.5219 N.3     1  UNL1       -0.2689
     27 C           4.6513   -1.3115   34.1060 C.3     1  UNL1        0.0729
     28 C           3.9578   -1.4057   32.7793 C.3     1  UNL1        0.0264
     29 C           3.9161   -0.2145   31.8685 C.3     1  UNL1        0.0795
     30 C           4.5680    1.0708   32.2844 C.3     1  UNL1        0.0264
     31 C           5.2615    1.1651   33.6111 C.3     1  UNL1        0.0729
     32 C           5.9966    0.0682   35.8486 C.3     1  UNL1        0.0993
     33 N           1.7549    1.0679   38.6786 N.pl3   1  UNL1       -0.3426
     34 C           3.2148    1.2798   38.4065 C.ar    1  UNL1        0.1251
     35 C           3.8758    0.5680   37.2636 C.ar    1  UNL1        0.0310
     36 C           5.3357    0.7800   36.9916 C.ar    1  UNL1       -0.0018
     37 C           6.1344    1.7038   37.8625 C.ar    1  UNL1        0.0179
     38 C           5.4734    2.4156   39.0054 C.ar    1  UNL1        0.1000
     39 N           4.0136    2.2036   39.2774 N.ar    1  UNL1       -0.2296
     40 H           1.2306    0.4616   38.1070 H       1  UNL1        0.1437
     41 H           1.3211    1.5351   39.4288 H       1  UNL1        0.1437
@<TRIPOS>BOND
     1    33    34    1
     2    34    35   ar
     3    35    36   ar
     4    36    32    1
     5    32    26    1
     6    26    27    1
     7    27    28    1
     8    28    29    1
     9    29     1    1
    10     1     2    2
    11     1     3   am
    12     3     4    1
    13     4     5    1
    14     5     6    1
    15     6     9    1
    16     9    10   ar
    17    10    11    2
    18    10    12   ar
    19    12    20    1
    20    20    21   ar
    21    21    22   ar
    22    22    23   ar
    23    23    24   ar
    24    24    25   ar
    25    12    13   ar
    26    13    14   ar
    27    14    15   ar
    28    15    16    1
    29    15    17   ar
    30    17    18   ar
    31    18    19   ar
    32     6     7    1
    33     7     8    1
    34    29    30    1
    35    30    31    1
    36    36    37   ar
    37    37    38   ar
    38    38    39   ar
    39    39    34   ar
    40    31    26    1
    41     8     3    1
    42    19     9   ar
    43    25    20   ar
    44    19    13   ar
    45    33    40    1
    46    33    41    1
@<TRIPOS>MOLECULE
*****
 41 46 0 0 0
SMALL
GASTEIGER

@<TRIPOS>ATOM
      1 C          -3.7205    4.9995   18.7374 C.2     1  UNL1        0.2252
      2 O          -4.0843    5.6133   17.4180 O.2     1  UNL1       -0.2749
      3 N          -2.4600    4.1970   18.8691 N.am    1  UNL1       -0.2794
      4 C          -1.5635    4.0085   17.6814 C.3     1  UNL1        0.0953
      5 C          -0.3030    3.2060   17.8131 C.3     1  UNL1        0.0442
      6 C           0.0609    2.5921   19.1325 C.3     1  UNL1        0.0933
      7 C          -0.8357    2.7807   20.3201 C.3     1  UNL1        0.0442
      8 C          -2.0961    3.5832   20.1884 C.3     1  UNL1        0.0953
      9 N           1.3214    1.7897   19.2642 N.ar    1  UNL1       -0.2814
     10 C           1.4351    0.4181   19.8607 C.ar    1  UNL1        0.3365
     11 O           0.3084   -0.3919   20.4302 O.2     1  UNL1       -0.2459
     12 N           2.8734   -0.0013   19.7876 N.ar    1  UNL1       -0.2420
     13 C           3.6486    1.1111   19.1459 C.ar    1  UNL1        0.0877
     14 C           5.1040    1.2591   18.8145 C.ar    1  UNL1        0.0488
     15 C           5.6001    2.5140   18.1595 C.ar    1  UNL1        0.1417
     16 F           7.0556    2.6621   17.8279 F       1  UNL1       -0.2041
     17 C           4.6409    3.6209   17.8360 C.ar    1  UNL1        0.0312
     18 C           3.1855    3.4729   18.1675 C.ar    1  UNL1        0.0211
     19 C           2.6894    2.2180   18.8225 C.ar    1  UNL1        0.0801
     20 C           3.4376   -1.3043   20.2712 C.ar    1  UNL1        0.1705
     21 C           3.7599   -1.4887   21.7246 C.ar    1  UNL1        0.1363
     22 N           4.3240   -2.7917   22.2083 N.ar    1  UNL1       -0.2375
     23 C           4.5659   -3.9103   21.2386 C.ar    1  UNL1        0.1196
     24 C           4.2435   -3.7259   19.7854 C.ar    1  UNL1        0.1212
     25 N           3.6794   -2.4229   19.3017 N.ar    1  UNL1       -0.2231
     26 N          -6.4102    5.5652   22.3005 N.3     1  UNL1       -0.2689
     27 C          -6.5351    4.3327   21.4546 C.3     1  UNL1        0.0729
     28 C          -5.6385    4.1441   20.2669 C.3     1  UNL1        0.0264
     29 C          -4.6171    5.1881   19.9251 C.3     1  UNL1        0.0795
     30 C          -4.4921    6.4205   20.7709 C.3     1  UNL1        0.0264
     31 C          -5.3887    6.6091   21.9586 C.3     1  UNL1        0.0729
     32 C          -7.3067    5.7538   23.4882 C.3     1  UNL1        0.0993
     33 N          -3.7874    3.8331   26.7936 N.pl3   1  UNL1       -0.3426
     34 C          -4.9846    4.6971   26.5280 C.ar    1  UNL1        0.1251
     35 C          -5.5471    4.7935   25.1408 C.ar    1  UNL1        0.0310
     36 C          -6.7442    5.6575   24.8753 C.ar    1  UNL1       -0.0018
     37 C          -7.3788    6.4251   25.9970 C.ar    1  UNL1        0.0179
     38 C          -6.8162    6.3287   27.3842 C.ar    1  UNL1        0.1000
     39 N          -5.6191    5.4647   27.6497 N.ar    1  UNL1       -0.2296
     40 H          -3.3709    3.3293   26.0574 H       1  UNL1        0.1437
     41 H          -3.4183    3.7699   27.7040 H       1  UNL1        0.1437
@<TRIPOS>BOND
     1    33    34    1
     2    34    35   ar
     3    35    36   ar
     4    36    32    1
     5    32    26    1
     6    26    27    1
     7    27    28    1
     8    28    29    1
     9    29     1    1
    10     1     2    2
    11     1     3   am
    12     3     4    1
    13     4     5    1
    14     5     6    1
    15     6     9    1
    16     9    10   ar
    17    10    11    2
    18    10    12   ar
    19    12    20    1
    20    20    21   ar
    21    21    22   ar
    22    22    23   ar
    23    23    24   ar
    24    24    25   ar
    25    12    13   ar
    26    13    14   ar
    27    14    15   ar
    28    15    16    1
    29    15    17   ar
    30    17    18   ar
    31    18    19   ar
    32     6     7    1
    33     7     8    1
    34    29    30    1
    35    30    31    1
    36    36    37   ar
    37    37    38   ar
    38    38    39   ar
    39    39    34   ar
    40    31    26    1
    41     8     3    1
    42    19     9   ar
    43    25    20   ar
    44    19    13   ar
    45    33    40    1
    46    33    41    1
@<TRIPOS>MOLECULE
*****
 41 46 0 0 0
SMALL
GASTEIGER

@<TRIPOS>ATOM
      1 C           7.1274   -4.2986   21.6388 C.2     1  UNL1        0.2252
      2 O           8.0367   -5.2806   20.9613 O.2     1  UNL1       -0.2749
      3 N           7.1176   -4.1945   23.1351 N.am    1  UNL1       -0.2794
      4 C           8.0170   -5.0723   23.9539 C.3     1  UNL1        0.0953
      5 C           8.0072   -4.9682   25.4503 C.3     1  UNL1        0.0442
      6 C           7.0980   -3.9862   26.1279 C.3     1  UNL1        0.0933
      7 C           6.1987   -3.1084   25.3090 C.3     1  UNL1        0.0442
      8 C           6.2085   -3.2125   23.8127 C.3     1  UNL1        0.0953
      9 N           7.0882   -3.8820   27.6242 N.ar    1  UNL1       -0.2814
     10 C           6.4687   -2.7768   28.4271 C.ar    1  UNL1        0.3365
     11 O           5.7502   -1.5816   27.8746 O.2     1  UNL1       -0.2459
     12 N           6.6938   -3.0766   29.8795 N.ar    1  UNL1       -0.2420
     13 C           7.4525   -4.3671   29.9742 C.ar    1  UNL1        0.0877
     14 C           7.9528   -5.1533   31.1496 C.ar    1  UNL1        0.0488
     15 C           8.6969   -6.4373   30.9311 C.ar    1  UNL1        0.1417
     16 F           9.1973   -7.2235   32.1066 F       1  UNL1       -0.2041
     17 C           8.9406   -6.9350   29.5373 C.ar    1  UNL1        0.0312
     18 C           8.4403   -6.1489   28.3619 C.ar    1  UNL1        0.0211
     19 C           7.6962   -4.8649   28.5804 C.ar    1  UNL1        0.0801
     20 C           6.2400   -2.2338   31.0344 C.ar    1  UNL1        0.1705
     21 C           6.6294   -0.7870   31.1057 C.ar    1  UNL1        0.1363
     22 N           6.1756    0.0558   32.2606 N.ar    1  UNL1       -0.2375
     23 C           5.3324   -0.5482   33.3442 C.ar    1  UNL1        0.1196
     24 C           4.9430   -1.9950   33.2728 C.ar    1  UNL1        0.1212
     25 N           5.3968   -2.8378   32.1179 N.ar    1  UNL1       -0.2231
     26 N           4.4293   -1.6650   19.1823 N.3     1  UNL1       -0.2689
     27 C           5.7039   -1.1126   19.7485 C.3     1  UNL1        0.0729
     28 C           6.6033   -1.9905   20.5673 C.3     1  UNL1        0.0264
     29 C           6.2281   -3.4207   20.8200 C.3     1  UNL1        0.0795
     30 C           4.9536   -3.9730   20.2538 C.3     1  UNL1        0.0264
     31 C           4.0542   -3.0952   19.4350 C.3     1  UNL1        0.0729
     32 C           3.5299   -0.7871   18.3635 C.3     1  UNL1        0.0993
     33 N          -0.0098    3.0151   18.4799 N.pl3   1  UNL1       -0.3426
     34 C           0.5554    1.7484   19.0510 C.ar    1  UNL1        0.1251
     35 C           1.7601    1.1139   18.4217 C.ar    1  UNL1        0.0310
     36 C           2.3252   -0.1527   18.9929 C.ar    1  UNL1       -0.0018
     37 C           1.6856   -0.7849   20.1934 C.ar    1  UNL1        0.0179
     38 C           0.4809   -0.1504   20.8228 C.ar    1  UNL1        0.1000
     39 N          -0.0842    1.1163   20.2516 N.ar    1  UNL1       -0.2296
     40 H           0.4100    3.4300   17.6919 H       1  UNL1        0.1437
     41 H          -0.8005    3.4315   18.8930 H       1  UNL1        0.1437
@<TRIPOS>BOND
     1    33    34    1
     2    34    35   ar
     3    35    36   ar
     4    36    32    1
     5    32    26    1
     6    26    27    1
     7    27    28    1
     8    28    29    1
     9    29     1    1
    10     1     2    2
    11     1     3   am
    12     3     4    1
    13     4     5    1
    14     5     6    1
    15     6     9    1
    16     9    10   ar
    17    10    11    2
    18    10    12   ar
    19    12    20    1
    20    20    21   ar
    21    21    22   ar
    22    22    23   ar
    23    23    24   ar
    24    24    25   ar
    25    12    13   ar
    26    13    14   ar
    27    14    15   ar
    28    15    16    1
    29    15    17   ar
    30    17    18   ar
    31    18    19   ar
    32     6     7    1
    33     7     8    1
    34    29    30    1
    35    30    31    1
    36    36    37   ar
    37    37    38   ar
    38    38    39   ar
    39    39    34   ar
    40    31    26    1
    41     8     3    1
    42    19     9   ar
    43    25    20   ar
    44    19    13   ar
    45    33    40    1
    46    33    41    1
@<TRIPOS>MOLECULE
*****
 41 46 0 0 0
SMALL
GASTEIGER

@<TRIPOS>ATOM
      1 C           0.9187    1.1075   29.4695 C.2     1  UNL1        0.2252
      2 O          -0.2887    1.3380   30.3291 O.2     1  UNL1       -0.2749
      3 N           0.8159    1.2457   27.9794 N.am    1  UNL1       -0.2794
      4 C          -0.4943    1.6144   27.3490 C.3     1  UNL1        0.0953
      5 C          -0.5971    1.7526   25.8589 C.3     1  UNL1        0.0442
      6 C           0.6104    1.5221   24.9992 C.3     1  UNL1        0.0933
      7 C           1.9205    1.1534   25.6297 C.3     1  UNL1        0.0442
      8 C           2.0233    1.0153   27.1197 C.3     1  UNL1        0.0953
      9 N           0.5076    1.6603   23.5091 N.ar    1  UNL1       -0.2814
     10 C          -0.3493    2.6465   22.7722 C.ar    1  UNL1        0.3365
     11 O          -1.2538    3.6677   23.3959 O.2     1  UNL1       -0.2459
     12 N          -0.1428    2.4322   21.3020 N.ar    1  UNL1       -0.2420
     13 C           0.8417    1.3136   21.1303 C.ar    1  UNL1        0.0877
     14 C           1.4240    0.6678   19.9081 C.ar    1  UNL1        0.0488
     15 C           2.4083   -0.4551   20.0501 C.ar    1  UNL1        0.1417
     16 F           2.9907   -1.1010   18.8279 F       1  UNL1       -0.2041
     17 C           2.8103   -0.9322   21.4142 C.ar    1  UNL1        0.0312
     18 C           2.2280   -0.2864   22.6364 C.ar    1  UNL1        0.0211
     19 C           1.2437    0.8365   22.4944 C.ar    1  UNL1        0.0801
     20 C          -0.8046    3.2015   20.1973 C.ar    1  UNL1        0.1705
     21 C           0.0302    3.8968   19.1629 C.ar    1  UNL1        0.1363
     22 N          -0.6316    4.6661   18.0583 N.ar    1  UNL1       -0.2375
     23 C          -2.1281    4.7401   17.9880 C.ar    1  UNL1        0.1196
     24 C          -2.9628    4.0449   19.0223 C.ar    1  UNL1        0.1212
     25 N          -2.3010    3.2756   20.1270 N.ar    1  UNL1       -0.2231
     26 N           4.8493    0.0015   31.3608 N.3     1  UNL1       -0.2689
     27 C           4.5215    1.4419   31.0997 C.3     1  UNL1        0.0729
     28 C           3.2113    1.8106   30.4693 C.3     1  UNL1        0.0264
     29 C           2.2289    0.7389   30.0999 C.3     1  UNL1        0.0795
     30 C           2.5567   -0.7014   30.3609 C.3     1  UNL1        0.0264
     31 C           3.8669   -1.0701   30.9914 C.3     1  UNL1        0.0729
     32 C           6.1595   -0.3671   31.9912 C.3     1  UNL1        0.0993
     33 N           6.5433   -5.5302   32.4334 N.pl3   1  UNL1       -0.3426
     34 C           7.0246   -4.2375   31.8441 C.ar    1  UNL1        0.1251
     35 C           6.3514   -2.9486   32.2123 C.ar    1  UNL1        0.0310
     36 C           6.8328   -1.6559   31.6229 C.ar    1  UNL1       -0.0018
     37 C           7.9873   -1.6522   30.6653 C.ar    1  UNL1        0.0179
     38 C           8.6605   -2.9410   30.2971 C.ar    1  UNL1        0.1000
     39 N           8.1792   -4.2337   30.8865 N.ar    1  UNL1       -0.2296
     40 H           5.7856   -5.5327   33.0619 H       1  UNL1        0.1437
     41 H           6.9852   -6.3761   32.1917 H       1  UNL1        0.1437
@<TRIPOS>BOND
     1    33    34    1
     2    34    35   ar
     3    35    36   ar
     4    36    32    1
     5    32    26    1
     6    26    27    1
     7    27    28    1
     8    28    29    1
     9    29     1    1
    10     1     2    2
    11     1     3   am
    12     3     4    1
    13     4     5    1
    14     5     6    1
    15     6     9    1
    16     9    10   ar
    17    10    11    2
    18    10    12   ar
    19    12    20    1
    20    20    21   ar
    21    21    22   ar
    22    22    23   ar
    23    23    24   ar
    24    24    25   ar
    25    12    13   ar
    26    13    14   ar
    27    14    15   ar
    28    15    16    1
    29    15    17   ar
    30    17    18   ar
    31    18    19   ar
    32     6     7    1
    33     7     8    1
    34    29    30    1
    35    30    31    1
    36    36    37   ar
    37    37    38   ar
    38    38    39   ar
    39    39    34   ar
    40    31    26    1
    41     8     3    1
    42    19     9   ar
    43    25    20   ar
    44    19    13   ar
    45    33    40    1
    46    33    41    1
@<TRIPOS>MOLECULE
*****
 41 46 0 0 0
SMALL
GASTEIGER

@<TRIPOS>ATOM
      1 C           3.7069    1.8171   18.4688 C.2     1  UNL1        0.2252
      2 O           4.5424    2.7663   17.6620 O.2     1  UNL1       -0.2749
      3 N           2.3476    2.2344   18.9463 N.am    1  UNL1       -0.2794
      4 C           1.8238    3.6009   18.6170 C.3     1  UNL1        0.0953
      5 C           0.4644    4.0182   19.0945 C.3     1  UNL1        0.0442
      6 C          -0.3712    3.0690   19.9014 C.3     1  UNL1        0.0933
      7 C           0.1527    1.7026   20.2307 C.3     1  UNL1        0.0442
      8 C           1.5120    1.2853   19.7532 C.3     1  UNL1        0.0953
      9 N          -1.7305    3.4863   20.3790 N.ar    1  UNL1       -0.2814
     10 C          -2.1440    3.6722   21.8088 C.ar    1  UNL1        0.3365
     11 O          -1.2709    3.4735   23.0121 O.2     1  UNL1       -0.2459
     12 N          -3.5841    4.0918   21.8240 N.ar    1  UNL1       -0.2420
     13 C          -4.0605    4.1652   20.4035 C.ar    1  UNL1        0.0877
     14 C          -5.3895    4.5244   19.8079 C.ar    1  UNL1        0.0488
     15 C          -5.5729    4.5095   18.3193 C.ar    1  UNL1        0.1417
     16 F          -6.9019    4.8687   17.7237 F       1  UNL1       -0.2041
     17 C          -4.4273    4.1352   17.4262 C.ar    1  UNL1        0.0312
     18 C          -3.0983    3.7760   18.0218 C.ar    1  UNL1        0.0211
     19 C          -2.9149    3.7910   19.5105 C.ar    1  UNL1        0.0801
     20 C          -4.4038    4.3863   23.0452 C.ar    1  UNL1        0.1705
     21 C          -4.5614    3.3436   24.1121 C.ar    1  UNL1        0.1363
     22 N          -5.3811    3.6381   25.3333 N.ar    1  UNL1       -0.2375
     23 C          -6.0433    4.9752   25.4876 C.ar    1  UNL1        0.1196
     24 C          -5.8857    6.0177   24.4208 C.ar    1  UNL1        0.1212
     25 N          -5.0659    5.7233   23.1996 N.ar    1  UNL1       -0.2231
     26 N           5.2783   -2.2822   19.4568 N.3     1  UNL1       -0.2689
     27 C           4.3486   -2.0954   18.2944 C.3     1  UNL1        0.0729
     28 C           3.8248   -0.7289   17.9651 C.3     1  UNL1        0.0264
     29 C           4.2307    0.4507   18.7981 C.3     1  UNL1        0.0795
     30 C           5.1604    0.2639   19.9604 C.3     1  UNL1        0.0264
     31 C           5.6842   -1.1026   20.2897 C.3     1  UNL1        0.0729
     32 C           5.8021   -3.6486   19.7861 C.3     1  UNL1        0.0993
     33 N           6.0974   -3.9838   24.9630 N.pl3   1  UNL1       -0.3426
     34 C           6.7607   -4.0289   23.6183 C.ar    1  UNL1        0.1251
     35 C           5.9498   -3.8162   22.3745 C.ar    1  UNL1        0.0310
     36 C           6.6131   -3.8614   21.0299 C.ar    1  UNL1       -0.0018
     37 C           8.0873   -4.1192   20.9291 C.ar    1  UNL1        0.0179
     38 C           8.8982   -4.3320   22.1729 C.ar    1  UNL1        0.1000
     39 N           8.2349   -4.2868   23.5175 N.ar    1  UNL1       -0.2296
     40 H           5.1299   -3.8145   25.0292 H       1  UNL1        0.1437
     41 H           6.6297   -4.1234   25.7793 H       1  UNL1        0.1437
@<TRIPOS>BOND
     1    33    34    1
     2    34    35   ar
     3    35    36   ar
     4    36    32    1
     5    32    26    1
     6    26    27    1
     7    27    28    1
     8    28    29    1
     9    29     1    1
    10     1     2    2
    11     1     3   am
    12     3     4    1
    13     4     5    1
    14     5     6    1
    15     6     9    1
    16     9    10   ar
    17    10    11    2
    18    10    12   ar
    19    12    20    1
    20    20    21   ar
    21    21    22   ar
    22    22    23   ar
    23    23    24   ar
    24    24    25   ar
    25    12    13   ar
    26    13    14   ar
    27    14    15   ar
    28    15    16    1
    29    15    17   ar
    30    17    18   ar
    31    18    19   ar
    32     6     7    1
    33     7     8    1
    34    29    30    1
    35    30    31    1
    36    36    37   ar
    37    37    38   ar
    38    38    39   ar
    39    39    34   ar
    40    31    26    1
    41     8     3    1
    42    19     9   ar
    43    25    20   ar
    44    19    13   ar
    45    33    40    1
    46    33    41    1
