@<TRIPOS>MOLECULE
*****
 37 41 0 0 0
SMALL
GASTEIGER

@<TRIPOS>ATOM
      1 C          -0.6388    1.9873   20.5885 C.3     1  UNL1        0.1169
      2 N           0.6418    1.2171   20.7183 N.am    1  UNL1       -0.2549
      3 C           1.3949    0.5633   19.5979 C.2     1  UNL1        0.3172
      4 O           0.9997    0.5650   18.1509 O.2     1  UNL1       -0.2516
      5 N           2.6127   -0.0924   20.1785 N.am    1  UNL1       -0.1909
      6 C           2.6122    0.1561   21.6577 C.2     1  UNL1        0.2544
      7 O           3.3132   -0.2106   22.0560 O.2     1  UNL1       -0.2723
      8 C           1.3941    0.9654   21.9914 C.3     1  UNL1        0.1545
      9 C           0.1760    1.7747   22.3250 C.3     1  UNL1        0.1196
     10 N           0.1755    2.0232   23.8043 N.pl3   1  UNL1       -0.2907
     11 C           1.3933    1.3675   24.3849 C.3     1  UNL1        0.0987
     12 C           2.1464    0.7138   23.2645 C.3     1  UNL1        0.0689
     13 C           3.6490   -0.8615   19.4140 C.ar    1  UNL1        0.0639
     14 C           3.6314   -2.3614   19.4276 C.ar    1  UNL1        0.0268
     15 C           4.6678   -3.1305   18.6631 C.ar    1  UNL1        0.0598
     16 CL          4.6502   -4.6303   18.6767 Cl      1  UNL1       -0.0822
     17 C           5.7217   -2.3997   17.8850 C.ar    1  UNL1        0.0229
     18 C           5.7392   -0.8999   17.8714 C.ar    1  UNL1        0.0598
     19 CL          6.7931   -0.1693   17.0933 Cl      1  UNL1       -0.0822
     20 C           4.7028   -0.1308   18.6360 C.ar    1  UNL1        0.0268
     21 C          -0.8608    2.7924   24.5688 C.ar    1  UNL1        0.1318
     22 C          -1.0112    2.5837   26.0466 C.ar    1  UNL1        0.0344
     23 C          -2.0476    3.3529   26.8110 C.ar    1  UNL1        0.0055
     24 C          -2.9335    4.3308   26.0977 C.ar    1  UNL1        0.0332
     25 C          -2.7831    4.5395   24.6199 C.ar    1  UNL1        0.1014
     26 N          -1.7468    3.7703   23.8555 N.ar    1  UNL1       -0.2291
     27 C          -3.9698    5.0999   26.8622 C.2     1  UNL1        0.0744
     28 O          -3.5577    5.9888   27.9979 O.co2   1  UNL1       -0.5445
     29 O          -5.4182    4.9802   26.4909 O.co2   1  UNL1       -0.5445
     30 C           3.4270   -0.0564   23.3943 C.ar    1  UNL1       -0.0187
     31 C           3.4045   -1.5563   23.3843 C.ar    1  UNL1       -0.0035
     32 C           4.6851   -2.3264   23.5141 C.ar    1  UNL1        0.0100
     33 C           5.9883   -1.5967   23.6539 C.ar    1  UNL1        0.0684
     34 C           6.0108   -0.0970   23.6639 C.ar    1  UNL1        0.0100
     35 C           4.7301    0.6732   23.5340 C.ar    1  UNL1       -0.0035
     36 C           7.2689   -2.3669   23.7837 C.1     1  UNL1        0.1004
     37 N           8.5495   -3.1371   23.9135 N.1     1  UNL1       -0.1908
@<TRIPOS>UNITY_ATOM_ATTR
28 1
charge -1
@<TRIPOS>BOND
     1     1     2    1
     2     2     3   am
     3     3     4    2
     4     3     5   am
     5     5    13    1
     6    13    14   ar
     7    14    15   ar
     8    15    16    1
     9    15    17   ar
    10    17    18   ar
    11    18    19    1
    12    18    20   ar
    13     5     6   am
    14     6     7    2
    15     6     8    1
    16     8     9    1
    17     9    10    1
    18    10    21    1
    19    21    22   ar
    20    22    23   ar
    21    23    24   ar
    22    24    27    1
    23    27    28   ar
    24    27    29   ar
    25    24    25   ar
    26    25    26   ar
    27    10    11    1
    28    11    12    1
    29    12    30    1
    30    30    31   ar
    31    31    32   ar
    32    32    33   ar
    33    33    36    1
    34    36    37    3
    35    33    34   ar
    36    34    35   ar
    37     8     2    1
    38    26    21   ar
    39    35    30   ar
    40    20    13   ar
    41    12     8    1
@<TRIPOS>MOLECULE
*****
 37 41 0 0 0
SMALL
GASTEIGER

@<TRIPOS>ATOM
      1 C          -1.9139    3.7820   22.7526 C.3     1  UNL1        0.1169
      2 N          -0.9920    3.0832   23.7074 N.am    1  UNL1       -0.2549
      3 C           0.3503    2.5036   23.3722 C.2     1  UNL1        0.3172
      4 O           1.0063    2.5211   22.0234 O.2     1  UNL1       -0.2516
      5 N           0.9214    1.9034   24.6227 N.am    1  UNL1       -0.1909
      6 C          -0.0680    2.1121   25.7307 C.2     1  UNL1        0.2544
      7 O           0.2180    1.7757   26.4986 O.2     1  UNL1       -0.2723
      8 C          -1.2505    2.8413   25.1650 C.3     1  UNL1        0.1545
      9 C          -2.4330    3.5704   24.5993 C.3     1  UNL1        0.1196
     10 N          -3.4224    3.7791   25.7073 N.pl3   1  UNL1       -0.2907
     11 C          -2.8513    3.1789   26.9578 C.3     1  UNL1        0.0987
     12 C          -1.5090    2.5993   26.6226 C.3     1  UNL1        0.0689
     13 C           2.2488    1.2154   24.7439 C.ar    1  UNL1        0.0639
     14 C           2.4930   -0.0758   24.0207 C.ar    1  UNL1        0.0268
     15 C           3.8205   -0.7638   24.1420 C.ar    1  UNL1        0.0598
     16 CL          4.0647   -2.0550   23.4187 Cl      1  UNL1       -0.0822
     17 C           4.9035   -0.1606   24.9864 C.ar    1  UNL1        0.0229
     18 C           4.6592    1.1307   25.7096 C.ar    1  UNL1        0.0598
     19 CL          5.7423    1.7338   26.5540 Cl      1  UNL1       -0.0822
     20 C           3.3318    1.8186   25.5883 C.ar    1  UNL1        0.0268
     21 C          -4.7497    4.4671   25.5861 C.ar    1  UNL1        0.1318
     22 C          -5.6209    4.2112   24.3922 C.ar    1  UNL1        0.0344
     23 C          -6.9483    4.8993   24.2710 C.ar    1  UNL1        0.0055
     24 C          -7.4045    5.8433   25.3438 C.ar    1  UNL1        0.0332
     25 C          -6.5333    6.0992   26.5377 C.ar    1  UNL1        0.1014
     26 N          -5.2059    5.4111   26.6588 N.ar    1  UNL1       -0.2291
     27 C          -8.7319    6.5313   25.2226 C.2     1  UNL1        0.0744
     28 O          -9.6222    6.2421   24.0506 O.co2   1  UNL1       -0.5445
     29 O          -9.1689    7.5084   26.2734 O.co2   1  UNL1       -0.5445
     30 C          -0.5871    1.9005   27.5774 C.ar    1  UNL1       -0.0187
     31 C          -0.8430    0.4721   27.9573 C.ar    1  UNL1       -0.0035
     32 C           0.0790   -0.2266   28.9121 C.ar    1  UNL1        0.0100
     33 C           1.2569    0.5029   29.4871 C.ar    1  UNL1        0.0684
     34 C           1.5127    1.9312   29.1072 C.ar    1  UNL1        0.0100
     35 C           0.5907    2.6300   28.1523 C.ar    1  UNL1       -0.0035
     36 C           2.1788   -0.1959   30.4419 C.1     1  UNL1        0.1004
     37 N           3.1007   -0.8947   31.3967 N.1     1  UNL1       -0.1908
@<TRIPOS>UNITY_ATOM_ATTR
28 1
charge -1
@<TRIPOS>BOND
     1     1     2    1
     2     2     3   am
     3     3     4    2
     4     3     5   am
     5     5    13    1
     6    13    14   ar
     7    14    15   ar
     8    15    16    1
     9    15    17   ar
    10    17    18   ar
    11    18    19    1
    12    18    20   ar
    13     5     6   am
    14     6     7    2
    15     6     8    1
    16     8     9    1
    17     9    10    1
    18    10    21    1
    19    21    22   ar
    20    22    23   ar
    21    23    24   ar
    22    24    27    1
    23    27    28   ar
    24    27    29   ar
    25    24    25   ar
    26    25    26   ar
    27    10    11    1
    28    11    12    1
    29    12    30    1
    30    30    31   ar
    31    31    32   ar
    32    32    33   ar
    33    33    36    1
    34    36    37    3
    35    33    34   ar
    36    34    35   ar
    37     8     2    1
    38    26    21   ar
    39    35    30   ar
    40    20    13   ar
    41    12     8    1
@<TRIPOS>MOLECULE
*****
 37 41 0 0 0
SMALL
GASTEIGER

@<TRIPOS>ATOM
      1 C          -1.9314    3.7611   22.7428 C.3     1  UNL1        0.1169
      2 N          -1.0089    3.0647   23.6988 N.am    1  UNL1       -0.2549
      3 C           0.3271    2.4720   23.3613 C.2     1  UNL1        0.3172
      4 O           0.9750    2.4717   22.0086 O.2     1  UNL1       -0.2516
      5 N           0.9012    1.8797   24.6141 N.am    1  UNL1       -0.1909
      6 C          -0.0799    2.1063   25.7259 C.2     1  UNL1        0.2544
      7 O           0.2082    1.7752   26.4953 O.2     1  UNL1       -0.2723
      8 C          -1.2605    2.8387   25.1603 C.3     1  UNL1        0.1545
      9 C          -2.4410    3.5711   24.5946 C.3     1  UNL1        0.1196
     10 N          -3.4220    3.7977   25.7064 N.pl3   1  UNL1       -0.2907
     11 C          -2.8479    3.2054   26.9592 C.3     1  UNL1        0.0987
     12 C          -1.5119    2.6127   26.6217 C.3     1  UNL1        0.0689
     13 C           2.2242    1.1831   24.7341 C.ar    1  UNL1        0.0639
     14 C           3.2987    1.7591   25.6079 C.ar    1  UNL1        0.0268
     15 C           4.6217    1.0624   25.7278 C.ar    1  UNL1        0.0598
     16 CL          5.6962    1.6385   26.6017 Cl      1  UNL1       -0.0822
     17 C           4.8702   -0.2102   24.9738 C.ar    1  UNL1        0.0229
     18 C           3.7957   -0.7863   24.1000 C.ar    1  UNL1        0.0598
     19 CL          4.0442   -2.0590   23.3460 Cl      1  UNL1       -0.0822
     20 C           2.4727   -0.0896   23.9801 C.ar    1  UNL1        0.0268
     21 C          -4.7450    4.4943   25.5865 C.ar    1  UNL1        0.1318
     22 C          -5.2216    5.3939   26.6881 C.ar    1  UNL1        0.0344
     23 C          -6.5446    6.0905   26.5681 C.ar    1  UNL1        0.0055
     24 C          -7.3911    5.8876   25.3465 C.ar    1  UNL1        0.0332
     25 C          -6.9146    4.9880   24.2449 C.ar    1  UNL1        0.1014
     26 N          -5.5915    4.2914   24.3649 N.ar    1  UNL1       -0.2291
     27 C          -8.7141    6.5842   25.2266 C.2     1  UNL1        0.0744
     28 O          -9.1674    7.5237   26.3045 O.co2   1  UNL1       -0.5445
     29 O          -9.5838    6.3413   24.0288 O.co2   1  UNL1       -0.5445
     30 C          -0.5894    1.9163   27.5777 C.ar    1  UNL1       -0.0187
     31 C           0.5821    2.6509   28.1591 C.ar    1  UNL1       -0.0035
     32 C           1.5045    1.9544   29.1151 C.ar    1  UNL1        0.0100
     33 C           1.2556    0.5233   29.4897 C.ar    1  UNL1        0.0684
     34 C           0.0842   -0.2112   28.9083 C.ar    1  UNL1        0.0100
     35 C          -0.8384    0.4853   27.9522 C.ar    1  UNL1       -0.0035
     36 C           2.1781   -0.1731   30.4457 C.1     1  UNL1        0.1004
     37 N           3.1006   -0.8695   31.4017 N.1     1  UNL1       -0.1908
@<TRIPOS>UNITY_ATOM_ATTR
28 1
charge -1
@<TRIPOS>BOND
     1     1     2    1
     2     2     3   am
     3     3     4    2
     4     3     5   am
     5     5    13    1
     6    13    14   ar
     7    14    15   ar
     8    15    16    1
     9    15    17   ar
    10    17    18   ar
    11    18    19    1
    12    18    20   ar
    13     5     6   am
    14     6     7    2
    15     6     8    1
    16     8     9    1
    17     9    10    1
    18    10    21    1
    19    21    22   ar
    20    22    23   ar
    21    23    24   ar
    22    24    27    1
    23    27    28   ar
    24    27    29   ar
    25    24    25   ar
    26    25    26   ar
    27    10    11    1
    28    11    12    1
    29    12    30    1
    30    30    31   ar
    31    31    32   ar
    32    32    33   ar
    33    33    36    1
    34    36    37    3
    35    33    34   ar
    36    34    35   ar
    37     8     2    1
    38    26    21   ar
    39    35    30   ar
    40    20    13   ar
    41    12     8    1
@<TRIPOS>MOLECULE
*****
 37 41 0 0 0
SMALL
GASTEIGER

@<TRIPOS>ATOM
      1 C           3.0072   -0.8712   30.4699 C.3     1  UNL1        0.1169
      2 N           3.2434   -0.1104   31.7409 N.am    1  UNL1       -0.2549
      3 C           2.3906    1.0027   32.2735 C.2     1  UNL1        0.3172
      4 O           1.1520    1.5504   31.6287 O.2     1  UNL1       -0.2516
      5 N           2.9940    1.4720   33.5642 N.am    1  UNL1       -0.1909
      6 C           4.2196    0.6489   33.8292 C.2     1  UNL1        0.2544
      7 O           4.6200    0.8833   34.5837 O.2     1  UNL1       -0.2723
      8 C           4.3738   -0.3292   32.7023 C.3     1  UNL1        0.1545
      9 C           4.5279   -1.3071   31.5754 C.3     1  UNL1        0.1196
     10 N           5.7536   -2.1302   31.8405 N.pl3   1  UNL1       -0.2907
     11 C           6.3569   -1.6610   33.1311 C.3     1  UNL1        0.0987
     12 C           5.5042   -0.5479   33.6638 C.3     1  UNL1        0.0689
     13 C           2.4646    2.5713   34.4366 C.ar    1  UNL1        0.0639
     14 C           2.6622    2.5108   35.9223 C.ar    1  UNL1        0.0268
     15 C           2.1328    3.6102   36.7947 C.ar    1  UNL1        0.0598
     16 CL          2.3304    3.5497   38.2804 Cl      1  UNL1       -0.0822
     17 C           1.4058    4.7701   36.1814 C.ar    1  UNL1        0.0229
     18 C           1.2081    4.8306   34.6957 C.ar    1  UNL1        0.0598
     19 CL          0.4811    5.9905   34.0825 Cl      1  UNL1       -0.0822
     20 C           1.7376    3.7311   33.8233 C.ar    1  UNL1        0.0268
     21 C           6.2830   -3.2296   30.9680 C.ar    1  UNL1        0.1318
     22 C           6.7698   -4.5075   31.5843 C.ar    1  UNL1        0.0344
     23 C           7.2992   -5.6069   30.7118 C.ar    1  UNL1        0.0055
     24 C           7.3418   -5.4283   29.2230 C.ar    1  UNL1        0.0332
     25 C           6.8549   -4.1503   28.6068 C.ar    1  UNL1        0.1014
     26 N           6.3255   -3.0510   29.4793 N.ar    1  UNL1       -0.2291
     27 C           7.8712   -6.5276   28.3506 C.2     1  UNL1        0.0744
     28 O           8.9161   -7.4659   28.8776 O.co2   1  UNL1       -0.5445
     29 O           7.3556   -6.6887   26.9512 O.co2   1  UNL1       -0.5445
     30 C           5.7403    0.2130   34.9347 C.ar    1  UNL1       -0.0187
     31 C           5.0642   -0.2168   36.2029 C.ar    1  UNL1       -0.0035
     32 C           5.3003    0.5440   37.4737 C.ar    1  UNL1        0.0100
     33 C           6.2126    1.7348   37.4766 C.ar    1  UNL1        0.0684
     34 C           6.8887    2.1646   36.2086 C.ar    1  UNL1        0.0100
     35 C           6.6526    1.4037   34.9376 C.ar    1  UNL1       -0.0035
     36 C           6.4488    2.4957   38.7476 C.1     1  UNL1        0.1004
     37 N           6.6849    3.2565   40.0185 N.1     1  UNL1       -0.1908
@<TRIPOS>UNITY_ATOM_ATTR
28 1
charge -1
@<TRIPOS>BOND
     1     1     2    1
     2     2     3   am
     3     3     4    2
     4     3     5   am
     5     5    13    1
     6    13    14   ar
     7    14    15   ar
     8    15    16    1
     9    15    17   ar
    10    17    18   ar
    11    18    19    1
    12    18    20   ar
    13     5     6   am
    14     6     7    2
    15     6     8    1
    16     8     9    1
    17     9    10    1
    18    10    21    1
    19    21    22   ar
    20    22    23   ar
    21    23    24   ar
    22    24    27    1
    23    27    28   ar
    24    27    29   ar
    25    24    25   ar
    26    25    26   ar
    27    10    11    1
    28    11    12    1
    29    12    30    1
    30    30    31   ar
    31    31    32   ar
    32    32    33   ar
    33    33    36    1
    34    36    37    3
    35    33    34   ar
    36    34    35   ar
    37     8     2    1
    38    26    21   ar
    39    35    30   ar
    40    20    13   ar
    41    12     8    1
@<TRIPOS>MOLECULE
*****
 37 41 0 0 0
SMALL
GASTEIGER

@<TRIPOS>ATOM
      1 C          -0.1843    2.2820   21.0212 C.3     1  UNL1        0.1169
      2 N          -0.3178    2.5710   22.4870 N.am    1  UNL1       -0.2549
      3 C          -1.2348    3.5839   23.1061 C.2     1  UNL1        0.3172
      4 O          -2.1791    4.4856   22.3679 O.2     1  UNL1       -0.2516
      5 N          -1.0415    3.5366   24.5928 N.am    1  UNL1       -0.1909
      6 C          -0.0051    2.4945   24.8927 C.2     1  UNL1        0.2544
      7 O           0.1510    2.4222   25.7615 O.2     1  UNL1       -0.2723
      8 C           0.4422    1.8977   23.5912 C.3     1  UNL1        0.1545
      9 C           0.8894    1.3008   22.2897 C.3     1  UNL1        0.1196
     10 N           1.9258    0.2588   22.5896 N.pl3   1  UNL1       -0.2907
     11 C           2.1191    0.2115   24.0763 C.3     1  UNL1        0.0987
     12 C           1.2022    1.2244   24.6953 C.3     1  UNL1        0.0689
     13 C          -1.7587    4.3829   25.6024 C.ar    1  UNL1        0.0639
     14 C          -0.9819    5.3010   26.4990 C.ar    1  UNL1        0.0268
     15 C          -1.6992    6.1473   27.5086 C.ar    1  UNL1        0.0598
     16 CL         -0.9225    7.0653   28.4051 Cl      1  UNL1       -0.0822
     17 C          -3.1932    6.0755   27.6216 C.ar    1  UNL1        0.0229
     18 C          -3.9700    5.1574   26.7251 C.ar    1  UNL1        0.0598
     19 CL         -5.4640    5.0857   26.8382 Cl      1  UNL1       -0.0822
     20 C          -3.2527    4.3111   25.7155 C.ar    1  UNL1        0.0268
     21 C           2.6430   -0.5876   21.5799 C.ar    1  UNL1        0.1318
     22 C           3.5595   -1.6841   22.0358 C.ar    1  UNL1        0.0344
     23 C           4.2767   -2.5303   21.0260 C.ar    1  UNL1        0.0055
     24 C           4.0775   -2.2801   19.5605 C.ar    1  UNL1        0.0332
     25 C           3.1610   -1.1836   19.1047 C.ar    1  UNL1        0.1014
     26 N           2.4438   -0.3374   20.1144 N.ar    1  UNL1       -0.2291
     27 C           4.7947   -3.1265   18.5509 C.2     1  UNL1        0.0744
     28 O           5.6278   -2.4782   17.4853 O.co2   1  UNL1       -0.5445
     29 O           4.6787   -4.6209   18.6069 O.co2   1  UNL1       -0.5445
     30 C           1.0686    1.5134   26.1612 C.ar    1  UNL1       -0.0187
     31 C          -0.0967    0.9655   26.9305 C.ar    1  UNL1       -0.0035
     32 C          -0.2302    1.2545   28.3963 C.ar    1  UNL1        0.0100
     33 C           0.8016    2.0914   29.0928 C.ar    1  UNL1        0.0684
     34 C           1.9669    2.6392   28.3235 C.ar    1  UNL1        0.0100
     35 C           2.1004    2.3502   26.8576 C.ar    1  UNL1       -0.0035
     36 C           0.6681    2.3803   30.5587 C.1     1  UNL1        0.1004
     37 N           0.5346    2.6693   32.0245 N.1     1  UNL1       -0.1908
@<TRIPOS>UNITY_ATOM_ATTR
28 1
charge -1
@<TRIPOS>BOND
     1     1     2    1
     2     2     3   am
     3     3     4    2
     4     3     5   am
     5     5    13    1
     6    13    14   ar
     7    14    15   ar
     8    15    16    1
     9    15    17   ar
    10    17    18   ar
    11    18    19    1
    12    18    20   ar
    13     5     6   am
    14     6     7    2
    15     6     8    1
    16     8     9    1
    17     9    10    1
    18    10    21    1
    19    21    22   ar
    20    22    23   ar
    21    23    24   ar
    22    24    27    1
    23    27    28   ar
    24    27    29   ar
    25    24    25   ar
    26    25    26   ar
    27    10    11    1
    28    11    12    1
    29    12    30    1
    30    30    31   ar
    31    31    32   ar
    32    32    33   ar
    33    33    36    1
    34    36    37    3
    35    33    34   ar
    36    34    35   ar
    37     8     2    1
    38    26    21   ar
    39    35    30   ar
    40    20    13   ar
    41    12     8    1
@<TRIPOS>MOLECULE
*****
 37 41 0 0 0
SMALL
GASTEIGER

@<TRIPOS>ATOM
      1 C           5.4636   -0.6893   31.3678 C.3     1  UNL1        0.1169
      2 N           4.5309   -0.2947   30.2613 N.am    1  UNL1       -0.2549
      3 C           4.6837   -0.6475   28.8115 C.2     1  UNL1        0.3172
      4 O           5.7961   -1.4568   28.2136 O.2     1  UNL1       -0.2516
      5 N           3.5288   -0.0489   28.0645 N.am    1  UNL1       -0.1909
      6 C           2.6623    0.6739   29.0528 C.2     1  UNL1        0.2544
      7 O           1.9599    1.0498   28.6656 O.2     1  UNL1       -0.2723
      8 C           3.2816    0.5220   30.4106 C.3     1  UNL1        0.1545
      9 C           3.9009    0.3700   31.7683 C.3     1  UNL1        0.1196
     10 N           3.0343    1.0928   32.7565 N.pl3   1  UNL1       -0.2907
     11 C           1.8794    1.6914   32.0096 C.3     1  UNL1        0.0987
     12 C           2.0323    1.3387   30.5597 C.3     1  UNL1        0.0689
     13 C           3.2836   -0.1545   26.5885 C.ar    1  UNL1        0.0639
     14 C           3.9805   -1.2132   25.7863 C.ar    1  UNL1        0.0268
     15 C           3.7352   -1.3187   24.3102 C.ar    1  UNL1        0.0598
     16 CL          4.4321   -2.3774   23.5080 Cl      1  UNL1       -0.0822
     17 C           2.7931   -0.3656   23.6364 C.ar    1  UNL1        0.0229
     18 C           2.0963    0.6931   24.4387 C.ar    1  UNL1        0.0598
     19 CL          1.1542    1.6462   23.7648 Cl      1  UNL1       -0.0822
     20 C           2.3416    0.7986   25.9147 C.ar    1  UNL1        0.0268
     21 C           3.2795    1.1984   34.2325 C.ar    1  UNL1        0.1318
     22 C           4.3048    0.3208   34.8872 C.ar    1  UNL1        0.0344
     23 C           4.5500    0.4265   36.3633 C.ar    1  UNL1        0.0055
     24 C           3.7699    1.4096   37.1847 C.ar    1  UNL1        0.0332
     25 C           2.7446    2.2872   36.5301 C.ar    1  UNL1        0.1014
     26 N           2.4994    2.1816   35.0540 N.ar    1  UNL1       -0.2291
     27 C           4.0151    1.5152   38.6607 C.2     1  UNL1        0.0744
     28 O           5.1732    2.3192   39.1729 O.co2   1  UNL1       -0.5445
     29 O           3.1022    0.8169   39.6245 O.co2   1  UNL1       -0.5445
     30 C           1.0995    1.7332   29.4532 C.ar    1  UNL1       -0.0187
     31 C           0.0205    0.7904   29.0098 C.ar    1  UNL1       -0.0035
     32 C          -0.9121    1.1850   27.9033 C.ar    1  UNL1        0.0100
     33 C          -0.7658    2.5226   27.2402 C.ar    1  UNL1        0.0684
     34 C           0.3132    3.4654   27.6836 C.ar    1  UNL1        0.0100
     35 C           1.2459    3.0707   28.7901 C.ar    1  UNL1       -0.0035
     36 C          -1.6985    2.9172   26.1337 C.1     1  UNL1        0.1004
     37 N          -2.6312    3.3118   25.0272 N.1     1  UNL1       -0.1908
@<TRIPOS>UNITY_ATOM_ATTR
28 1
charge -1
@<TRIPOS>BOND
     1     1     2    1
     2     2     3   am
     3     3     4    2
     4     3     5   am
     5     5    13    1
     6    13    14   ar
     7    14    15   ar
     8    15    16    1
     9    15    17   ar
    10    17    18   ar
    11    18    19    1
    12    18    20   ar
    13     5     6   am
    14     6     7    2
    15     6     8    1
    16     8     9    1
    17     9    10    1
    18    10    21    1
    19    21    22   ar
    20    22    23   ar
    21    23    24   ar
    22    24    27    1
    23    27    28   ar
    24    27    29   ar
    25    24    25   ar
    26    25    26   ar
    27    10    11    1
    28    11    12    1
    29    12    30    1
    30    30    31   ar
    31    31    32   ar
    32    32    33   ar
    33    33    36    1
    34    36    37    3
    35    33    34   ar
    36    34    35   ar
    37     8     2    1
    38    26    21   ar
    39    35    30   ar
    40    20    13   ar
    41    12     8    1
@<TRIPOS>MOLECULE
*****
 37 41 0 0 0
SMALL
GASTEIGER

@<TRIPOS>ATOM
      1 C           5.4702   -0.6747   31.3684 C.3     1  UNL1        0.1169
      2 N           4.5346   -0.2797   30.2645 N.am    1  UNL1       -0.2549
      3 C           4.6854   -0.6291   28.8136 C.2     1  UNL1        0.3172
      4 O           5.7982   -1.4349   28.2119 O.2     1  UNL1       -0.2516
      5 N           3.5279   -0.0312   28.0702 N.am    1  UNL1       -0.1909
      6 C           2.6617    0.6877   29.0616 C.2     1  UNL1        0.2544
      7 O           1.9579    1.0630   28.6765 O.2     1  UNL1       -0.2723
      8 C           3.2839    0.5342   30.4179 C.3     1  UNL1        0.1545
      9 C           3.9062    0.3806   31.7741 C.3     1  UNL1        0.1196
     10 N           3.0400    1.0995   32.7655 N.pl3   1  UNL1       -0.2907
     11 C           1.8825    1.6974   32.0220 C.3     1  UNL1        0.0987
     12 C           2.0333    1.3480   30.5711 C.3     1  UNL1        0.0689
     13 C           3.2801   -0.1342   26.5944 C.ar    1  UNL1        0.0639
     14 C           2.3212    0.8069   25.9274 C.ar    1  UNL1        0.0268
     15 C           2.0734    0.7039   24.4516 C.ar    1  UNL1        0.0598
     16 CL          1.1145    1.6450   23.7846 Cl      1  UNL1       -0.0822
     17 C           2.7845   -0.3402   23.6428 C.ar    1  UNL1        0.0229
     18 C           3.7434   -1.2813   24.3098 C.ar    1  UNL1        0.0598
     19 CL          4.4544   -2.3254   23.5009 Cl      1  UNL1       -0.0822
     20 C           3.9911   -1.1783   25.7856 C.ar    1  UNL1        0.0268
     21 C           3.2878    1.2025   34.2413 C.ar    1  UNL1        0.1318
     22 C           4.2958    0.3058   34.8969 C.ar    1  UNL1        0.0344
     23 C           4.5436    0.4088   36.3727 C.ar    1  UNL1        0.0055
     24 C           3.7834    1.4085   37.1929 C.ar    1  UNL1        0.0332
     25 C           2.7754    2.3052   36.5373 C.ar    1  UNL1        0.1014
     26 N           2.5276    2.2022   35.0615 N.ar    1  UNL1       -0.2291
     27 C           4.0312    1.5115   38.6687 C.2     1  UNL1        0.0744
     28 O           3.1146    0.8190   39.6332 O.co2   1  UNL1       -0.5445
     29 O           5.1957    2.3069   39.1800 O.co2   1  UNL1       -0.5445
     30 C           1.0976    1.7430   29.4672 C.ar    1  UNL1       -0.0187
     31 C           1.2587    3.0699   28.7863 C.ar    1  UNL1       -0.0035
     32 C           0.3231    3.4648   27.6825 C.ar    1  UNL1        0.0100
     33 C          -0.7737    2.5330   27.2595 C.ar    1  UNL1        0.0684
     34 C          -0.9348    1.2063   27.9403 C.ar    1  UNL1        0.0100
     35 C           0.0009    0.8113   29.0442 C.ar    1  UNL1       -0.0035
     36 C          -1.7093    2.9281   26.1556 C.1     1  UNL1        0.1004
     37 N          -2.6449    3.3231   25.0517 N.1     1  UNL1       -0.1908
@<TRIPOS>UNITY_ATOM_ATTR
28 1
charge -1
@<TRIPOS>BOND
     1     1     2    1
     2     2     3   am
     3     3     4    2
     4     3     5   am
     5     5    13    1
     6    13    14   ar
     7    14    15   ar
     8    15    16    1
     9    15    17   ar
    10    17    18   ar
    11    18    19    1
    12    18    20   ar
    13     5     6   am
    14     6     7    2
    15     6     8    1
    16     8     9    1
    17     9    10    1
    18    10    21    1
    19    21    22   ar
    20    22    23   ar
    21    23    24   ar
    22    24    27    1
    23    27    28   ar
    24    27    29   ar
    25    24    25   ar
    26    25    26   ar
    27    10    11    1
    28    11    12    1
    29    12    30    1
    30    30    31   ar
    31    31    32   ar
    32    32    33   ar
    33    33    36    1
    34    36    37    3
    35    33    34   ar
    36    34    35   ar
    37     8     2    1
    38    26    21   ar
    39    35    30   ar
    40    20    13   ar
    41    12     8    1
@<TRIPOS>MOLECULE
*****
 37 41 0 0 0
SMALL
GASTEIGER

@<TRIPOS>ATOM
      1 C           0.4338    2.1789   23.5520 C.3     1  UNL1        0.1169
      2 N          -0.8687    2.8403   23.2114 N.am    1  UNL1       -0.2549
      3 C          -1.3361    3.2107   21.8351 C.2     1  UNL1        0.3172
      4 O          -0.5831    2.9847   20.5577 O.2     1  UNL1       -0.2516
      5 N          -2.6888    3.8468   21.9605 N.am    1  UNL1       -0.1909
      6 C          -3.0574    3.8696   23.4143 C.2     1  UNL1        0.2544
      7 O          -3.8520    4.2367   23.5494 O.2     1  UNL1       -0.2723
      8 C          -1.9325    3.2475   24.1875 C.3     1  UNL1        0.1545
      9 C          -0.8076    2.6254   24.9606 C.3     1  UNL1        0.1196
     10 N          -1.1762    2.6481   26.4144 N.pl3   1  UNL1       -0.2907
     11 C          -2.5289    3.2842   26.5399 C.3     1  UNL1        0.0987
     12 C          -2.9963    3.6547   25.1635 C.3     1  UNL1        0.0689
     13 C          -3.5259    4.3686   20.8304 C.ar    1  UNL1        0.0639
     14 C          -4.6495    3.5386   20.2840 C.ar    1  UNL1        0.0268
     15 C          -5.4865    4.0605   19.1539 C.ar    1  UNL1        0.0598
     16 CL         -6.6101    3.2305   18.6075 Cl      1  UNL1       -0.0822
     17 C          -5.1999    5.4122   18.5703 C.ar    1  UNL1        0.0229
     18 C          -4.0763    6.2422   19.1168 C.ar    1  UNL1        0.0598
     19 CL         -3.7898    7.5940   18.5331 Cl      1  UNL1       -0.0822
     20 C          -3.2392    5.7204   20.2469 C.ar    1  UNL1        0.0268
     21 C          -0.3391    2.1264   27.5445 C.ar    1  UNL1        0.1318
     22 C          -0.5035    0.7091   28.0074 C.ar    1  UNL1        0.0344
     23 C           0.3337    0.1874   29.1375 C.ar    1  UNL1        0.0055
     24 C           1.3351    1.0829   29.8047 C.ar    1  UNL1        0.0332
     25 C           1.4995    2.5002   29.3418 C.ar    1  UNL1        0.1014
     26 N           0.6623    3.0219   28.2117 N.ar    1  UNL1       -0.2291
     27 C           2.1722    0.5611   30.9348 C.2     1  UNL1        0.0744
     28 O           2.4109   -0.9133   31.0725 O.co2   1  UNL1       -0.5445
     29 O           2.7705    1.5138   31.9270 O.co2   1  UNL1       -0.5445
     30 C          -4.2988    4.3161   24.8229 C.ar    1  UNL1       -0.0187
     31 C          -5.3574    3.5521   24.0842 C.ar    1  UNL1       -0.0035
     32 C          -6.6598    4.2136   23.7437 C.ar    1  UNL1        0.0100
     33 C          -6.9037    5.6391   24.1419 C.ar    1  UNL1        0.0684
     34 C          -5.8452    6.4031   24.8805 C.ar    1  UNL1        0.0100
     35 C          -4.5426    5.7416   25.2211 C.ar    1  UNL1       -0.0035
     36 C          -8.2062    6.3006   23.8013 C.1     1  UNL1        0.1004
     37 N          -9.5087    6.9620   23.4607 N.1     1  UNL1       -0.1908
@<TRIPOS>UNITY_ATOM_ATTR
28 1
charge -1
@<TRIPOS>BOND
     1     1     2    1
     2     2     3   am
     3     3     4    2
     4     3     5   am
     5     5    13    1
     6    13    14   ar
     7    14    15   ar
     8    15    16    1
     9    15    17   ar
    10    17    18   ar
    11    18    19    1
    12    18    20   ar
    13     5     6   am
    14     6     7    2
    15     6     8    1
    16     8     9    1
    17     9    10    1
    18    10    21    1
    19    21    22   ar
    20    22    23   ar
    21    23    24   ar
    22    24    27    1
    23    27    28   ar
    24    27    29   ar
    25    24    25   ar
    26    25    26   ar
    27    10    11    1
    28    11    12    1
    29    12    30    1
    30    30    31   ar
    31    31    32   ar
    32    32    33   ar
    33    33    36    1
    34    36    37    3
    35    33    34   ar
    36    34    35   ar
    37     8     2    1
    38    26    21   ar
    39    35    30   ar
    40    20    13   ar
    41    12     8    1
@<TRIPOS>MOLECULE
*****
 37 41 0 0 0
SMALL
GASTEIGER

@<TRIPOS>ATOM
      1 C           7.5186   -3.3869   26.1803 C.3     1  UNL1        0.1169
      2 N           6.7670   -2.5813   27.1983 N.am    1  UNL1       -0.2549
      3 C           7.1321   -2.4270   28.6450 C.2     1  UNL1        0.3172
      4 O           8.3128   -3.0512   29.3277 O.2     1  UNL1       -0.2516
      5 N           6.1091   -1.5389   29.2890 N.am    1  UNL1       -0.1909
      6 C           5.1117   -1.1443   28.2403 C.2     1  UNL1        0.2544
      7 O           4.4797   -0.6160   28.5657 O.2     1  UNL1       -0.2723
      8 C           5.5183   -1.7886   26.9481 C.3     1  UNL1        0.1545
      9 C           5.9250   -2.4329   25.6560 C.3     1  UNL1        0.1196
     10 N           4.9276   -2.0383   24.6074 N.pl3   1  UNL1       -0.2907
     11 C           3.9046   -1.1502   25.2514 C.3     1  UNL1        0.0987
     12 C           4.2697   -0.9959   26.6981 C.3     1  UNL1        0.0689
     13 C           6.0873   -1.1191   30.7289 C.ar    1  UNL1        0.0639
     14 C           5.1491   -1.7863   31.6905 C.ar    1  UNL1        0.0268
     15 C           5.1273   -1.3664   33.1304 C.ar    1  UNL1        0.0598
     16 CL          4.1892   -2.0335   34.0920 Cl      1  UNL1       -0.0822
     17 C           6.0437   -0.2794   33.6086 C.ar    1  UNL1        0.0229
     18 C           6.9819    0.3878   32.6469 C.ar    1  UNL1        0.0598
     19 CL          7.8982    1.4747   33.1252 Cl      1  UNL1       -0.0822
     20 C           7.0036   -0.0321   31.2070 C.ar    1  UNL1        0.0268
     21 C           4.9495   -2.4581   23.1675 C.ar    1  UNL1        0.1318
     22 C           3.8768   -1.9848   22.2319 C.ar    1  UNL1        0.0344
     23 C           3.8986   -2.4047   20.7920 C.ar    1  UNL1        0.0055
     24 C           4.9932   -3.2978   20.2877 C.ar    1  UNL1        0.0332
     25 C           6.0659   -3.7711   21.2232 C.ar    1  UNL1        0.1014
     26 N           6.0440   -3.3512   22.6632 N.ar    1  UNL1       -0.2291
     27 C           5.0150   -3.7176   18.8478 C.2     1  UNL1        0.0744
     28 O           5.4134   -2.7356   17.7863 O.co2   1  UNL1       -0.5445
     29 O           4.6384   -5.1194   18.4695 O.co2   1  UNL1       -0.5445
     30 C           3.5182   -0.1903   27.7160 C.ar    1  UNL1       -0.0187
     31 C           3.9213    1.2269   27.9973 C.ar    1  UNL1       -0.0035
     32 C           3.1697    2.0324   29.0152 C.ar    1  UNL1        0.0100
     33 C           2.0149    1.4208   29.7519 C.ar    1  UNL1        0.0684
     34 C           1.6119    0.0037   29.4706 C.ar    1  UNL1        0.0100
     35 C           2.3635   -0.8019   28.4526 C.ar    1  UNL1       -0.0035
     36 C           1.2634    2.2264   30.7698 C.1     1  UNL1        0.1004
     37 N           0.5118    3.0319   31.7877 N.1     1  UNL1       -0.1908
@<TRIPOS>UNITY_ATOM_ATTR
28 1
charge -1
@<TRIPOS>BOND
     1     1     2    1
     2     2     3   am
     3     3     4    2
     4     3     5   am
     5     5    13    1
     6    13    14   ar
     7    14    15   ar
     8    15    16    1
     9    15    17   ar
    10    17    18   ar
    11    18    19    1
    12    18    20   ar
    13     5     6   am
    14     6     7    2
    15     6     8    1
    16     8     9    1
    17     9    10    1
    18    10    21    1
    19    21    22   ar
    20    22    23   ar
    21    23    24   ar
    22    24    27    1
    23    27    28   ar
    24    27    29   ar
    25    24    25   ar
    26    25    26   ar
    27    10    11    1
    28    11    12    1
    29    12    30    1
    30    30    31   ar
    31    31    32   ar
    32    32    33   ar
    33    33    36    1
    34    36    37    3
    35    33    34   ar
    36    34    35   ar
    37     8     2    1
    38    26    21   ar
    39    35    30   ar
    40    20    13   ar
    41    12     8    1
