@<TRIPOS>MOLECULE
*****
 29 31 0 0 0
SMALL
GASTEIGER

@<TRIPOS>ATOM
      1 C         -11.5436  -19.5353   21.6002 C.3     1  UNL1        0.0038
      2 C         -10.6999  -20.0598   22.7240 C.3     1  UNL1        0.0473
      3 C          -9.2042  -20.0350   22.6136 C.3     1  UNL1        0.2054
      4 O          -8.5471  -19.2847   21.4932 O.3     1  UNL1       -0.4755
      5 C          -4.0689  -19.3588   21.0573 C.ar    1  UNL1        0.0538
      6 C          -4.7013  -18.5776   22.1708 C.ar    1  UNL1        0.0076
      7 C          -6.1941  -18.5529   22.3161 C.ar    1  UNL1        0.0370
      8 C          -7.0544  -19.3094   21.3479 C.ar    1  UNL1        0.1386
      9 C          -6.4221  -20.0906   20.2344 C.ar    1  UNL1        0.0370
     10 C          -4.9294  -20.1153   20.0891 C.ar    1  UNL1        0.0076
     11 C          -0.4013  -18.4225   19.8650 C.3     1  UNL1        0.1152
     12 N          -1.8940  -18.3978   20.0103 N.am    1  UNL1       -0.2726
     13 C          -2.7045  -17.3874   19.2540 C.3     1  UNL1        0.1152
     14 C          -2.5762  -19.3835   20.9120 C.2     1  UNL1        0.2491
     15 O          -1.7657  -20.3939   21.6684 O.2     1  UNL1       -0.2699
     16 C         -12.3525  -18.2863   21.7894 C.3     1  UNL1        0.0001
     17 C         -11.7249  -16.9439   21.5573 C.3     1  UNL1        0.0000
     18 C         -10.5089  -16.5396   22.3370 C.3     1  UNL1        0.0000
     19 C         -10.4619  -16.7585   23.8201 C.3     1  UNL1        0.0001
     20 C          -9.2459  -16.3542   24.5998 C.3     1  UNL1        0.0025
     21 C          -8.0770  -15.7308   23.8962 C.3     1  UNL1        0.0297
     22 C          -8.1239  -15.5119   22.4131 C.3     1  UNL1        0.0025
     23 C          -9.3399  -15.9162   21.6335 C.3     1  UNL1        0.0001
     24 C          -6.8381  -15.0997   23.3331 C.3     1  UNL1        0.1419
     25 O          -5.8818  -14.8654   24.4648 O.3     1  UNL1       -0.3585
     26 C          -6.5296  -15.3518   25.7274 C.3     1  UNL1        0.0930
     27 C          -5.2526  -14.8988   26.3708 C.3     1  UNL1        0.0296
     28 C          -6.9104  -15.7434   27.1243 C.3     1  UNL1        0.0296
     29 C          -7.8862  -15.8866   25.3760 C.3     1  UNL1        0.0296
@<TRIPOS>BOND
     1    11    12    1
     2    12    13    1
     3    12    14   am
     4    14    15    2
     5    14     5    1
     6     5     6   ar
     7     6     7   ar
     8     7     8   ar
     9     8     4    1
    10     4     3    1
    11     3     2    1
    12     2     1    1
    13     1    16    1
    14    16    17    1
    15    18    17    1
    16    18    19    1
    17    19    20    1
    18    21    20    1
    19    21    22    1
    20    22    23    1
    21    21    24    1
    22    24    25    1
    23    25    26    1
    24    26    27    1
    25    26    28    1
    26    26    29    1
    27     8     9   ar
    28     9    10   ar
    29    10     5   ar
    30    23    18    1
    31    29    21    1
@<TRIPOS>MOLECULE
*****
 29 31 0 0 0
SMALL
GASTEIGER

@<TRIPOS>ATOM
      1 C          -3.4550  -19.6518   19.4664 C.3     1  UNL1        0.0038
      2 C          -2.4950  -18.5862   19.0273 C.3     1  UNL1        0.0473
      3 C          -1.2181  -18.3692   19.7838 C.3     1  UNL1        0.2054
      4 O          -1.2114  -18.4459   21.2818 O.3     1  UNL1       -0.4755
      5 C          -4.3984  -16.3358   23.6569 C.ar    1  UNL1        0.0538
      6 C          -4.1866  -17.8106   23.8303 C.ar    1  UNL1        0.0076
      7 C          -3.1242  -18.5139   23.0386 C.ar    1  UNL1        0.0370
      8 C          -2.2737  -17.7425   22.0735 C.ar    1  UNL1        0.1386
      9 C          -2.4855  -16.2677   21.9000 C.ar    1  UNL1        0.0370
     10 C          -3.5478  -15.5643   22.6917 C.ar    1  UNL1        0.0076
     11 C          -7.9620  -15.0445   24.8329 C.3     1  UNL1        0.1152
     12 N          -6.8997  -15.7479   24.0412 N.am    1  UNL1       -0.2726
     13 C          -7.2764  -16.5667   22.8422 C.3     1  UNL1        0.1152
     14 C          -5.4606  -15.6324   24.4485 C.2     1  UNL1        0.2491
     15 O          -5.0840  -14.8136   25.6475 O.2     1  UNL1       -0.2699
     16 C          -4.8129  -19.2731   19.9790 C.3     1  UNL1        0.0001
     17 C          -5.7841  -20.3400   20.3894 C.3     1  UNL1        0.0000
     18 C          -7.0956  -19.9614   21.0114 C.3     1  UNL1        0.0000
     19 C          -8.1433  -19.2702   20.1901 C.3     1  UNL1        0.0001
     20 C          -9.4547  -18.8917   20.8120 C.3     1  UNL1        0.0025
     21 C          -9.7184  -19.2043   22.2552 C.3     1  UNL1        0.0297
     22 C          -8.6707  -19.8955   23.0764 C.3     1  UNL1        0.0025
     23 C          -7.3593  -20.2740   22.4545 C.3     1  UNL1        0.0001
     24 C         -10.1231  -19.4507   23.6784 C.3     1  UNL1        0.1419
     25 O         -11.5103  -18.9116   23.8659 O.3     1  UNL1       -0.3585
     26 C         -11.9630  -18.3320   22.5585 C.3     1  UNL1        0.0930
     27 C         -13.2199  -18.0161   23.3137 C.3     1  UNL1        0.0296
     28 C         -12.6784  -17.6865   21.4091 C.3     1  UNL1        0.0296
     29 C         -10.8556  -18.5129   21.5631 C.3     1  UNL1        0.0296
@<TRIPOS>BOND
     1    11    12    1
     2    12    13    1
     3    12    14   am
     4    14    15    2
     5    14     5    1
     6     5     6   ar
     7     6     7   ar
     8     7     8   ar
     9     8     4    1
    10     4     3    1
    11     3     2    1
    12     2     1    1
    13     1    16    1
    14    16    17    1
    15    18    17    1
    16    18    19    1
    17    19    20    1
    18    21    20    1
    19    21    22    1
    20    22    23    1
    21    21    24    1
    22    24    25    1
    23    25    26    1
    24    26    27    1
    25    26    28    1
    26    26    29    1
    27     8     9   ar
    28     9    10   ar
    29    10     5   ar
    30    23    18    1
    31    29    21    1
@<TRIPOS>MOLECULE
*****
 29 31 0 0 0
SMALL
GASTEIGER

@<TRIPOS>ATOM
      1 C         -10.5099  -19.5156   20.2775 C.3     1  UNL1        0.0038
      2 C         -11.4650  -18.3701   20.1177 C.3     1  UNL1        0.0473
      3 C         -12.3946  -18.0070   21.2374 C.3     1  UNL1        0.2054
      4 O         -12.1151  -18.4885   22.6303 O.3     1  UNL1       -0.4755
      5 C          -8.8849  -16.5358   25.0803 C.ar    1  UNL1        0.0538
      6 C          -9.3072  -17.9433   25.3813 C.ar    1  UNL1        0.0076
      7 C         -10.3839  -18.5942   24.5646 C.ar    1  UNL1        0.0370
      8 C         -11.0384  -17.8376   23.4470 C.ar    1  UNL1        0.1386
      9 C         -10.6162  -16.4300   23.1460 C.ar    1  UNL1        0.0370
     10 C          -9.5394  -15.7792   23.9627 C.ar    1  UNL1        0.0076
     11 C          -5.3689  -15.0197   26.1240 C.3     1  UNL1        0.1152
     12 N          -6.4456  -15.6706   25.3073 N.am    1  UNL1       -0.2726
     13 C          -6.1599  -16.1071   23.9010 C.3     1  UNL1        0.1152
     14 C          -7.8082  -15.8849   25.8970 C.2     1  UNL1        0.2491
     15 O          -8.0939  -15.4483   27.3033 O.2     1  UNL1       -0.2699
     16 C          -9.0340  -19.2866   20.1382 C.3     1  UNL1        0.0001
     17 C          -8.1074  -19.6653   21.2553 C.3     1  UNL1        0.0000
     18 C          -6.6347  -19.4104   21.1274 C.3     1  UNL1        0.0000
     19 C          -6.0580  -18.9914   19.8077 C.3     1  UNL1        0.0001
     20 C          -4.5854  -18.7365   19.6799 C.3     1  UNL1        0.0025
     21 C          -3.6895  -18.9007   20.8718 C.3     1  UNL1        0.0297
     22 C          -4.2663  -19.3198   22.1914 C.3     1  UNL1        0.0025
     23 C          -5.7389  -19.5747   22.3193 C.3     1  UNL1        0.0001
     24 C          -2.6749  -19.0233   21.9697 C.3     1  UNL1        0.1419
     25 O          -1.3312  -18.6768   21.4000 O.3     1  UNL1       -0.3585
     26 C          -1.5154  -18.3401   19.9499 C.3     1  UNL1        0.0930
     27 C          -0.0316  -18.1218   19.9743 C.3     1  UNL1        0.0296
     28 C          -1.3894  -17.9577   18.5050 C.3     1  UNL1        0.0296
     29 C          -2.9729  -18.4784   19.6234 C.3     1  UNL1        0.0296
@<TRIPOS>BOND
     1    11    12    1
     2    12    13    1
     3    12    14   am
     4    14    15    2
     5    14     5    1
     6     5     6   ar
     7     6     7   ar
     8     7     8   ar
     9     8     4    1
    10     4     3    1
    11     3     2    1
    12     2     1    1
    13     1    16    1
    14    16    17    1
    15    18    17    1
    16    18    19    1
    17    19    20    1
    18    21    20    1
    19    21    22    1
    20    22    23    1
    21    21    24    1
    22    24    25    1
    23    25    26    1
    24    26    27    1
    25    26    28    1
    26    26    29    1
    27     8     9   ar
    28     9    10   ar
    29    10     5   ar
    30    23    18    1
    31    29    21    1
@<TRIPOS>MOLECULE
*****
 29 31 0 0 0
SMALL
GASTEIGER

@<TRIPOS>ATOM
      1 C         -11.4213  -18.5504   20.0513 C.3     1  UNL1        0.0038
      2 C          -9.9645  -18.9051   20.0954 C.3     1  UNL1        0.0473
      3 C          -9.4221  -19.7062   21.2417 C.3     1  UNL1        0.2054
      4 O          -8.4178  -19.0964   22.1742 O.3     1  UNL1       -0.4755
      5 C          -4.0299  -19.2915   21.1954 C.ar    1  UNL1        0.0538
      6 C          -5.0162  -20.0716   20.3776 C.ar    1  UNL1        0.0076
      7 C          -6.4789  -20.0065   20.7039 C.ar    1  UNL1        0.0370
      8 C          -6.9552  -19.1614   21.8479 C.ar    1  UNL1        0.1386
      9 C          -5.9689  -18.3813   22.6657 C.ar    1  UNL1        0.0370
     10 C          -4.5063  -18.4463   22.3394 C.ar    1  UNL1        0.0076
     11 C          -0.5051  -18.4344   19.5857 C.3     1  UNL1        0.1152
     12 N          -1.9677  -18.3693   19.9120 N.am    1  UNL1       -0.2726
     13 C          -2.8308  -17.3172   19.2811 C.3     1  UNL1        0.1152
     14 C          -2.5673  -19.3565   20.8691 C.2     1  UNL1        0.2491
     15 O          -1.7042  -20.4087   21.5000 O.2     1  UNL1       -0.2699
     16 C         -11.8618  -17.1495   20.3572 C.3     1  UNL1        0.0001
     17 C         -10.8485  -16.0471   20.4451 C.3     1  UNL1        0.0000
     18 C          -9.9807  -15.9213   21.6622 C.3     1  UNL1        0.0000
     19 C         -10.4872  -16.3851   22.9957 C.3     1  UNL1        0.0001
     20 C          -9.6194  -16.2593   24.2126 C.3     1  UNL1        0.0025
     21 C          -8.2451  -15.6697   24.0961 C.3     1  UNL1        0.0297
     22 C          -7.7385  -15.2059   22.7626 C.3     1  UNL1        0.0025
     23 C          -8.6063  -15.3317   21.5457 C.3     1  UNL1        0.0001
     24 C          -6.8564  -15.1037   24.1342 C.3     1  UNL1        0.1419
     25 O          -6.3666  -15.1720   25.5504 O.3     1  UNL1       -0.3585
     26 C          -7.4526  -15.7803   26.3876 C.3     1  UNL1        0.0930
     27 C          -6.4760  -15.5916   27.5104 C.3     1  UNL1        0.0296
     28 C          -8.3343  -16.3490   27.4594 C.3     1  UNL1        0.0296
     29 C          -8.6135  -16.0878   25.4888 C.3     1  UNL1        0.0296
@<TRIPOS>BOND
     1    11    12    1
     2    12    13    1
     3    12    14   am
     4    14    15    2
     5    14     5    1
     6     5     6   ar
     7     6     7   ar
     8     7     8   ar
     9     8     4    1
    10     4     3    1
    11     3     2    1
    12     2     1    1
    13     1    16    1
    14    16    17    1
    15    18    17    1
    16    18    19    1
    17    19    20    1
    18    21    20    1
    19    21    22    1
    20    22    23    1
    21    21    24    1
    22    24    25    1
    23    25    26    1
    24    26    27    1
    25    26    28    1
    26    26    29    1
    27     8     9   ar
    28     9    10   ar
    29    10     5   ar
    30    23    18    1
    31    29    21    1
@<TRIPOS>MOLECULE
*****
 29 31 0 0 0
SMALL
GASTEIGER

@<TRIPOS>ATOM
      1 C          -6.0813  -15.9122   27.1636 C.3     1  UNL1        0.0038
      2 C          -5.3773  -15.1581   26.0747 C.3     1  UNL1        0.0473
      3 C          -5.2856  -15.7425   24.6963 C.3     1  UNL1        0.2054
      4 O          -4.6417  -17.0816   24.4907 O.3     1  UNL1       -0.4755
      5 C          -2.1582  -17.8438   20.8163 C.ar    1  UNL1        0.0538
      6 C          -3.0051  -18.9409   21.3899 C.ar    1  UNL1        0.0076
      7 C          -3.8329  -18.6868   22.6148 C.ar    1  UNL1        0.0370
      8 C          -3.8139  -17.3357   23.2659 C.ar    1  UNL1        0.1386
      9 C          -2.9670  -16.2386   22.6922 C.ar    1  UNL1        0.0370
     10 C          -2.1391  -16.4926   21.4675 C.ar    1  UNL1        0.0076
     11 C          -0.9965  -17.9071   17.0220 C.3     1  UNL1        0.1152
     12 N          -1.8243  -17.6530   18.2468 N.am    1  UNL1       -0.2726
     13 C          -3.1462  -16.9542   18.1269 C.3     1  UNL1        0.1152
     14 C          -1.3303  -18.0978   19.5915 C.2     1  UNL1        0.2491
     15 O          -0.0085  -18.7967   19.7114 O.2     1  UNL1       -0.2699
     16 C          -7.4936  -15.5608   27.5271 C.3     1  UNL1        0.0001
     17 C          -8.6047  -16.5262   27.2384 C.3     1  UNL1        0.0000
     18 C          -8.9810  -16.8341   25.8193 C.3     1  UNL1        0.0000
     19 C          -9.5313  -18.1838   25.4653 C.3     1  UNL1        0.0001
     20 C          -9.9076  -18.4916   24.0463 C.3     1  UNL1        0.0025
     21 C          -9.7335  -17.4498   22.9813 C.3     1  UNL1        0.0297
     22 C          -9.1831  -16.1001   23.3353 C.3     1  UNL1        0.0025
     23 C          -8.8069  -15.7922   24.7543 C.3     1  UNL1        0.0001
     24 C          -9.6163  -16.5137   21.8151 C.3     1  UNL1        0.1419
     25 O         -10.1034  -17.2332   20.5923 O.3     1  UNL1       -0.3585
     26 C         -10.5217  -18.6140   21.0028 C.3     1  UNL1        0.0930
     27 C         -10.8521  -18.7758   19.5487 C.3     1  UNL1        0.0296
     28 C         -11.0090  -20.0285   21.1094 C.3     1  UNL1        0.0296
     29 C         -10.2931  -18.7479   22.4792 C.3     1  UNL1        0.0296
@<TRIPOS>BOND
     1    11    12    1
     2    12    13    1
     3    12    14   am
     4    14    15    2
     5    14     5    1
     6     5     6   ar
     7     6     7   ar
     8     7     8   ar
     9     8     4    1
    10     4     3    1
    11     3     2    1
    12     2     1    1
    13     1    16    1
    14    16    17    1
    15    18    17    1
    16    18    19    1
    17    19    20    1
    18    21    20    1
    19    21    22    1
    20    22    23    1
    21    21    24    1
    22    24    25    1
    23    25    26    1
    24    26    27    1
    25    26    28    1
    26    26    29    1
    27     8     9   ar
    28     9    10   ar
    29    10     5   ar
    30    23    18    1
    31    29    21    1
@<TRIPOS>MOLECULE
*****
 29 31 0 0 0
SMALL
GASTEIGER

@<TRIPOS>ATOM
      1 C          -6.3158  -15.0636   27.2646 C.3     1  UNL1        0.0038
      2 C          -7.0048  -16.3483   27.6177 C.3     1  UNL1        0.0473
      3 C          -8.4770  -16.5011   27.3746 C.3     1  UNL1        0.2054
      4 O          -9.0283  -17.8177   26.9131 O.3     1  UNL1       -0.4755
      5 C         -10.7612  -18.2066   22.7784 C.ar    1  UNL1        0.0538
      6 C         -10.7918  -19.3759   23.7175 C.ar    1  UNL1        0.0076
      7 C         -10.2141  -19.2462   25.0958 C.ar    1  UNL1        0.0370
      8 C          -9.6059  -17.9473   25.5349 C.ar    1  UNL1        0.1386
      9 C          -9.5754  -16.7780   24.5959 C.ar    1  UNL1        0.0370
     10 C         -10.1530  -16.9076   23.2177 C.ar    1  UNL1        0.0076
     11 C         -11.0814  -19.0248   18.9083 C.3     1  UNL1        0.1152
     12 N         -10.5038  -18.8952   20.2865 N.am    1  UNL1       -0.2726
     13 C          -9.0911  -19.3246   20.5511 C.3     1  UNL1        0.1152
     14 C         -11.3388  -18.3362   21.4002 C.2     1  UNL1        0.2491
     15 O         -12.7515  -17.9068   21.1356 O.2     1  UNL1       -0.2699
     16 C          -5.4139  -15.0006   26.0676 C.3     1  UNL1        0.0001
     17 C          -5.9847  -15.1572   24.6894 C.3     1  UNL1        0.0000
     18 C          -5.5087  -16.2693   23.8023 C.3     1  UNL1        0.0000
     19 C          -6.5022  -17.1689   23.1287 C.3     1  UNL1        0.0001
     20 C          -6.0262  -18.2809   22.2418 C.3     1  UNL1        0.0025
     21 C          -4.5568  -18.4934   22.0284 C.3     1  UNL1        0.0297
     22 C          -3.5633  -17.5939   22.7020 C.3     1  UNL1        0.0025
     23 C          -4.0392  -16.4818   23.5890 C.3     1  UNL1        0.0001
     24 C          -3.1266  -18.8262   21.7220 C.3     1  UNL1        0.1419
     25 O          -3.1133  -20.0064   20.7962 O.3     1  UNL1       -0.3585
     26 C          -4.5353  -20.4031   20.5305 C.3     1  UNL1        0.0930
     27 C          -3.9133  -21.4676   19.6762 C.3     1  UNL1        0.0296
     28 C          -5.8273  -21.0222   20.0862 C.3     1  UNL1        0.0296
     29 C          -5.4274  -19.4680   21.2920 C.3     1  UNL1        0.0296
@<TRIPOS>BOND
     1    11    12    1
     2    12    13    1
     3    12    14   am
     4    14    15    2
     5    14     5    1
     6     5     6   ar
     7     6     7   ar
     8     7     8   ar
     9     8     4    1
    10     4     3    1
    11     3     2    1
    12     2     1    1
    13     1    16    1
    14    16    17    1
    15    18    17    1
    16    18    19    1
    17    19    20    1
    18    21    20    1
    19    21    22    1
    20    22    23    1
    21    21    24    1
    22    24    25    1
    23    25    26    1
    24    26    27    1
    25    26    28    1
    26    26    29    1
    27     8     9   ar
    28     9    10   ar
    29    10     5   ar
    30    23    18    1
    31    29    21    1
@<TRIPOS>MOLECULE
*****
 29 31 0 0 0
SMALL
GASTEIGER

@<TRIPOS>ATOM
      1 C          -3.1797  -18.6935   19.2135 C.3     1  UNL1        0.0038
      2 C          -1.7654  -18.6643   19.7123 C.3     1  UNL1        0.0473
      3 C          -1.4898  -18.4841   21.1757 C.3     1  UNL1        0.2054
      4 O          -1.7142  -17.1494   21.8224 O.3     1  UNL1       -0.4755
      5 C          -5.6964  -16.1936   23.6874 C.ar    1  UNL1        0.0538
      6 C          -5.2626  -17.6215   23.5358 C.ar    1  UNL1        0.0076
      7 C          -3.9351  -17.9401   22.9141 C.ar    1  UNL1        0.0370
      8 C          -3.0416  -16.8308   22.4440 C.ar    1  UNL1        0.1386
      9 C          -3.4754  -15.4029   22.5957 C.ar    1  UNL1        0.0370
     10 C          -4.8028  -15.0843   23.2173 C.ar    1  UNL1        0.0076
     11 C          -8.4536  -15.3417   26.4118 C.3     1  UNL1        0.1152
     12 N          -7.1262  -15.6603   25.7901 N.am    1  UNL1       -0.2726
     13 C          -5.9011  -15.7641   26.6494 C.3     1  UNL1        0.1152
     14 C          -7.0238  -15.8751   24.3091 C.2     1  UNL1        0.2491
     15 O          -8.2489  -15.7712   23.4497 O.2     1  UNL1       -0.2699
     16 C          -3.9245  -19.9938   19.1458 C.3     1  UNL1        0.0001
     17 C          -4.4999  -20.5944   20.3940 C.3     1  UNL1        0.0000
     18 C          -5.8477  -20.1556   20.8851 C.3     1  UNL1        0.0000
     19 C          -6.3727  -20.6682   22.1933 C.3     1  UNL1        0.0001
     20 C          -7.7204  -20.2294   22.6843 C.3     1  UNL1        0.0025
     21 C          -8.5431  -19.2779   21.8671 C.3     1  UNL1        0.0297
     22 C          -8.0181  -18.7653   20.5588 C.3     1  UNL1        0.0025
     23 C          -6.6704  -19.2041   20.0678 C.3     1  UNL1        0.0001
     24 C          -9.4743  -18.3362   21.1629 C.3     1  UNL1        0.1419
     25 O         -10.7031  -18.1800   22.0091 O.3     1  UNL1       -0.3585
     26 C         -10.5312  -19.0254   23.2363 C.3     1  UNL1        0.0930
     27 C         -11.8894  -18.5006   23.5963 C.3     1  UNL1        0.0296
     28 C         -10.6432  -19.7609   24.5387 C.3     1  UNL1        0.0296
     29 C          -9.1963  -19.7039   23.1485 C.3     1  UNL1        0.0296
@<TRIPOS>BOND
     1    11    12    1
     2    12    13    1
     3    12    14   am
     4    14    15    2
     5    14     5    1
     6     5     6   ar
     7     6     7   ar
     8     7     8   ar
     9     8     4    1
    10     4     3    1
    11     3     2    1
    12     2     1    1
    13     1    16    1
    14    16    17    1
    15    18    17    1
    16    18    19    1
    17    19    20    1
    18    21    20    1
    19    21    22    1
    20    22    23    1
    21    21    24    1
    22    24    25    1
    23    25    26    1
    24    26    27    1
    25    26    28    1
    26    26    29    1
    27     8     9   ar
    28     9    10   ar
    29    10     5   ar
    30    23    18    1
    31    29    21    1
@<TRIPOS>MOLECULE
*****
 29 31 0 0 0
SMALL
GASTEIGER

@<TRIPOS>ATOM
      1 C          -5.6505  -14.9957   25.5276 C.3     1  UNL1        0.0038
      2 C          -5.9191  -15.9163   26.6809 C.3     1  UNL1        0.0473
      3 C          -7.2786  -15.9487   27.3138 C.3     1  UNL1        0.2054
      4 O          -8.2233  -17.0722   27.0047 O.3     1  UNL1       -0.4755
      5 C         -10.6887  -16.9682   23.2416 C.ar    1  UNL1        0.0538
      6 C         -10.5790  -18.2387   24.0315 C.ar    1  UNL1        0.0076
      7 C          -9.7571  -18.2733   25.2859 C.ar    1  UNL1        0.0370
      8 C          -9.0451  -17.0375   25.7504 C.ar    1  UNL1        0.1386
      9 C          -9.1548  -15.7671   24.9605 C.ar    1  UNL1        0.0370
     10 C          -9.9766  -15.7324   23.7061 C.ar    1  UNL1        0.0076
     11 C         -11.8790  -16.0786   19.5617 C.3     1  UNL1        0.1152
     12 N         -11.0572  -16.1133   20.8161 N.am    1  UNL1       -0.2726
     13 C          -9.7821  -15.3276   20.8993 C.3     1  UNL1        0.1152
     14 C         -11.5105  -16.9336   21.9873 C.2     1  UNL1        0.2491
     15 O         -12.7856  -17.7192   21.9041 O.2     1  UNL1       -0.2699
     16 C          -4.9131  -15.4989   24.3221 C.3     1  UNL1        0.0001
     17 C          -4.6778  -16.9699   24.1469 C.3     1  UNL1        0.0000
     18 C          -5.4105  -17.7246   23.0775 C.3     1  UNL1        0.0000
     19 C          -6.8371  -17.3845   22.7629 C.3     1  UNL1        0.0001
     20 C          -7.5697  -18.1391   21.6934 C.3     1  UNL1        0.0025
     21 C          -6.8757  -19.2340   20.9386 C.3     1  UNL1        0.0297
     22 C          -5.4491  -19.5741   21.2533 C.3     1  UNL1        0.0025
     23 C          -4.7165  -18.8194   22.3227 C.3     1  UNL1        0.0001
     24 C          -6.3158  -20.3478   20.1044 C.3     1  UNL1        0.1419
     25 O          -7.3910  -20.8096   19.1658 O.3     1  UNL1       -0.3585
     26 C          -8.6154  -19.9811   19.4200 C.3     1  UNL1        0.0930
     27 C          -9.2160  -20.8182   18.3298 C.3     1  UNL1        0.0296
     28 C          -9.9652  -19.3276   19.4462 C.3     1  UNL1        0.0296
     29 C          -8.2969  -19.0073   20.5156 C.3     1  UNL1        0.0296
@<TRIPOS>BOND
     1    11    12    1
     2    12    13    1
     3    12    14   am
     4    14    15    2
     5    14     5    1
     6     5     6   ar
     7     6     7   ar
     8     7     8   ar
     9     8     4    1
    10     4     3    1
    11     3     2    1
    12     2     1    1
    13     1    16    1
    14    16    17    1
    15    18    17    1
    16    18    19    1
    17    19    20    1
    18    21    20    1
    19    21    22    1
    20    22    23    1
    21    21    24    1
    22    24    25    1
    23    25    26    1
    24    26    27    1
    25    26    28    1
    26    26    29    1
    27     8     9   ar
    28     9    10   ar
    29    10     5   ar
    30    23    18    1
    31    29    21    1
@<TRIPOS>MOLECULE
*****
 29 31 0 0 0
SMALL
GASTEIGER

@<TRIPOS>ATOM
      1 C          -6.2205  -14.8751   26.7750 C.3     1  UNL1        0.0038
      2 C          -5.0805  -15.1920   25.8530 C.3     1  UNL1        0.0473
      3 C          -5.3545  -15.6331   24.4458 C.3     1  UNL1        0.2054
      4 O          -4.4034  -16.5634   23.7528 O.3     1  UNL1       -0.4755
      5 C          -5.9870  -19.8266   21.0894 C.ar    1  UNL1        0.0538
      6 C          -4.5103  -19.5769   21.1726 C.ar    1  UNL1        0.0076
      7 C          -3.9824  -18.4891   22.0604 C.ar    1  UNL1        0.0370
      8 C          -4.9313  -17.6511   22.8650 C.ar    1  UNL1        0.1386
      9 C          -6.4080  -17.9008   22.7819 C.ar    1  UNL1        0.0370
     10 C          -6.9359  -18.9885   21.8941 C.ar    1  UNL1        0.0076
     11 C          -8.1677  -21.7151   18.3641 C.3     1  UNL1        0.1152
     12 N          -7.6399  -20.6274   19.2518 N.am    1  UNL1       -0.2726
     13 C          -8.2369  -19.2527   19.1898 C.3     1  UNL1        0.1152
     14 C          -6.5149  -20.9143   20.2017 C.2     1  UNL1        0.2491
     15 O          -5.9178  -22.2890   20.2637 O.2     1  UNL1       -0.2699
     16 C          -6.8483  -15.9642   27.5933 C.3     1  UNL1        0.0001
     17 C          -8.3081  -16.2724   27.4381 C.3     1  UNL1        0.0000
     18 C          -8.8600  -16.6297   26.0898 C.3     1  UNL1        0.0000
     19 C          -9.3138  -18.0323   25.8128 C.3     1  UNL1        0.0001
     20 C          -9.8657  -18.3895   24.4646 C.3     1  UNL1        0.0025
     21 C          -9.9636  -17.3442   23.3933 C.3     1  UNL1        0.0297
     22 C          -9.5098  -15.9416   23.6702 C.3     1  UNL1        0.0025
     23 C          -8.9579  -15.5844   25.0185 C.3     1  UNL1        0.0001
     24 C         -10.1218  -16.4108   22.2298 C.3     1  UNL1        0.1419
     25 O         -10.7102  -17.1873   21.0891 O.3     1  UNL1       -0.3585
     26 C         -10.9156  -18.6007   21.5478 C.3     1  UNL1        0.0930
     27 C         -11.4430  -18.8082   20.1590 C.3     1  UNL1        0.0296
     28 C         -11.2313  -20.0573   21.7161 C.3     1  UNL1        0.0296
     29 C         -10.4543  -18.6976   22.9718 C.3     1  UNL1        0.0296
@<TRIPOS>BOND
     1    11    12    1
     2    12    13    1
     3    12    14   am
     4    14    15    2
     5    14     5    1
     6     5     6   ar
     7     6     7   ar
     8     7     8   ar
     9     8     4    1
    10     4     3    1
    11     3     2    1
    12     2     1    1
    13     1    16    1
    14    16    17    1
    15    18    17    1
    16    18    19    1
    17    19    20    1
    18    21    20    1
    19    21    22    1
    20    22    23    1
    21    21    24    1
    22    24    25    1
    23    25    26    1
    24    26    27    1
    25    26    28    1
    26    26    29    1
    27     8     9   ar
    28     9    10   ar
    29    10     5   ar
    30    23    18    1
    31    29    21    1
