@<TRIPOS>MOLECULE
*****
 32 36 0 0 0
SMALL
GASTEIGER

@<TRIPOS>ATOM
      1 C           6.6053   -3.8993   28.4269 C.ar    1  UNL1        0.1233
      2 C           6.4044   -2.7445   29.3629 C.ar    1  UNL1        0.1180
      3 N           6.5149   -3.2611   30.7668 N.ar    1  UNL1       -0.2233
      4 N           6.7840   -4.7352   30.6984 N.ar    1  UNL1       -0.0634
      5 N           6.8399   -5.1296   29.2523 N.ar    1  UNL1       -0.1287
      6 C           6.3799   -2.4467   32.0192 C.3     1  UNL1        0.1825
      7 C           5.0214   -2.4513   32.6553 C.3     1  UNL1        0.0339
      8 C           4.5689   -1.7457   33.8991 C.3     1  UNL1        0.0041
      9 C           5.3628   -0.8612   34.8142 C.3     1  UNL1        0.0181
     10 C           4.5246   -0.3545   35.9502 C.3     1  UNL1        0.0016
     11 C           5.1290    0.5495   36.9833 C.3     1  UNL1        0.0001
     12 C           6.5718    0.9468   36.8804 C.3     1  UNL1        0.0017
     13 C           7.4101    0.4401   35.7444 C.3     1  UNL1        0.0196
     14 C           6.8056   -0.4638   34.7113 C.3     1  UNL1        0.0716
     15 N           7.8106   -0.8529   33.6679 N.am    1  UNL1       -0.3044
     16 C           7.6213   -1.7353   32.4698 C.2     1  UNL1        0.2449
     17 O           8.8334   -1.9325   31.6086 O.2     1  UNL1       -0.2730
     18 H           8.7141   -0.4797   33.7850 H       1  UNL1        0.1494
     19 C           7.0433   -4.9318   24.6201 C.ar    1  UNL1        0.1547
     20 C           7.0720   -4.9961   26.1183 C.ar    1  UNL1        0.0400
     21 C           6.5766   -3.8350   26.9285 C.ar    1  UNL1        0.0241
     22 C           6.0524   -2.6096   26.2404 C.ar    1  UNL1        0.0033
     23 C           6.0237   -2.5453   24.7420 C.ar    1  UNL1        0.0207
     24 C           6.5191   -3.7064   23.9319 C.ar    1  UNL1        0.0994
     25 N           6.4904   -3.6420   22.4335 N.ar    1  UNL1       -0.2839
     26 C           7.6712   -3.4093   21.5381 C.ar    1  UNL1        0.1826
     27 N           7.1863   -3.4226   20.1188 N.ar    1  UNL1       -0.2280
     28 C           5.7059   -3.6634   20.1368 C.ar    1  UNL1        0.0786
     29 C           4.8125   -3.7529   18.9353 C.3     1  UNL1        0.0538
     30 C           5.2758   -3.7990   21.5674 C.ar    1  UNL1        0.0963
     31 C           8.1824   -7.2633   24.4923 C.3     1  UNL1        0.2525
     32 O           7.5387   -6.0929   23.8099 O.3     1  UNL1       -0.4700
@<TRIPOS>BOND
     1    31    32    1
     2    32    19    1
     3    19    20   ar
     4    20    21   ar
     5    21     1    1
     6     1     2   ar
     7     2     3   ar
     8     3     6    1
     9     6     7    1
    10     7     8    1
    11     9     8    1
    12     9    10    1
    13    10    11    1
    14    11    12    1
    15    12    13    1
    16    14    13    1
    17    14    15    1
    18    15    16   am
    19    16    17    2
    20     3     4   ar
    21     4     5   ar
    22    21    22   ar
    23    22    23   ar
    24    23    24   ar
    25    24    25    1
    26    25    26   ar
    27    26    27   ar
    28    27    28   ar
    29    28    29    1
    30    28    30   ar
    31    24    19   ar
    32    30    25   ar
    33     5     1   ar
    34    16     6    1
    35    14     9    1
    36    15    18    1
@<TRIPOS>MOLECULE
*****
 32 36 0 0 0
SMALL
GASTEIGER

@<TRIPOS>ATOM
      1 C           6.3940   -0.6910   32.8223 C.ar    1  UNL1        0.1233
      2 C           6.2204   -2.0704   32.2590 C.ar    1  UNL1        0.1180
      3 N           7.1355   -2.2076   31.0784 N.ar    1  UNL1       -0.2233
      4 N           7.8746   -0.9130   30.9120 N.ar    1  UNL1       -0.0634
      5 N           7.4163    0.0243   31.9898 N.ar    1  UNL1       -0.1287
      6 C           7.2851   -3.4255   30.2157 C.3     1  UNL1        0.1825
      7 C           8.1648   -4.5088   30.7660 C.3     1  UNL1        0.0339
      8 C           8.5119   -5.8331   30.1532 C.3     1  UNL1        0.0041
      9 C           8.0651   -6.4014   28.8389 C.3     1  UNL1        0.0181
     10 C           8.6469   -7.7641   28.6048 C.3     1  UNL1        0.0016
     11 C           8.3243   -8.5109   27.3446 C.3     1  UNL1        0.0001
     12 C           7.4201   -7.8950   26.3184 C.3     1  UNL1        0.0017
     13 C           6.8384   -6.5324   26.5524 C.3     1  UNL1        0.0196
     14 C           7.1609   -5.7856   27.8126 C.3     1  UNL1        0.0716
     15 N           6.4801   -4.4494   27.8474 N.am    1  UNL1       -0.3044
     16 C           6.5354   -3.3990   28.9167 C.2     1  UNL1        0.2449
     17 O           5.7351   -2.1583   28.6523 O.2     1  UNL1       -0.2730
     18 H           5.9234   -4.2333   27.0647 H       1  UNL1        0.1494
     19 C           3.7397    1.3019   34.9976 C.ar    1  UNL1        0.1547
     20 C           4.4616    0.7371   33.8104 C.ar    1  UNL1        0.0400
     21 C           5.6720   -0.1262   34.0096 C.ar    1  UNL1        0.0241
     22 C           6.1603   -0.4248   35.3960 C.ar    1  UNL1        0.0033
     23 C           5.4382    0.1400   36.5833 C.ar    1  UNL1        0.0207
     24 C           4.2280    1.0033   36.3841 C.ar    1  UNL1        0.0994
     25 N           3.5060    1.5681   37.5715 N.ar    1  UNL1       -0.2839
     26 C           3.9676    2.7154   38.4204 C.ar    1  UNL1        0.1826
     27 N           2.9425    2.9411   39.4919 N.ar    1  UNL1       -0.2280
     28 C           1.8473    1.9334   39.3053 C.ar    1  UNL1        0.0786
     29 C           0.6194    1.7979   40.1561 C.3     1  UNL1        0.0538
     30 C           2.1955    1.0848   38.1184 C.ar    1  UNL1        0.0963
     31 C           1.9859    2.3881   33.4182 C.3     1  UNL1        0.2525
     32 O           2.5293    2.1653   34.7984 O.3     1  UNL1       -0.4700
@<TRIPOS>BOND
     1    31    32    1
     2    32    19    1
     3    19    20   ar
     4    20    21   ar
     5    21     1    1
     6     1     2   ar
     7     2     3   ar
     8     3     6    1
     9     6     7    1
    10     7     8    1
    11     9     8    1
    12     9    10    1
    13    10    11    1
    14    11    12    1
    15    12    13    1
    16    14    13    1
    17    14    15    1
    18    15    16   am
    19    16    17    2
    20     3     4   ar
    21     4     5   ar
    22    21    22   ar
    23    22    23   ar
    24    23    24   ar
    25    24    25    1
    26    25    26   ar
    27    26    27   ar
    28    27    28   ar
    29    28    29    1
    30    28    30   ar
    31    24    19   ar
    32    30    25   ar
    33     5     1   ar
    34    16     6    1
    35    14     9    1
    36    15    18    1
@<TRIPOS>MOLECULE
*****
 32 36 0 0 0
SMALL
GASTEIGER

@<TRIPOS>ATOM
      1 C           6.6052   -3.6805   29.5313 C.ar    1  UNL1        0.1233
      2 C           6.3533   -2.4640   30.3720 C.ar    1  UNL1        0.1180
      3 N           6.5143   -2.8538   31.8115 N.ar    1  UNL1       -0.2233
      4 N           6.8657   -4.3112   31.8605 N.ar    1  UNL1       -0.0634
      5 N           6.9219   -4.8221   30.4513 N.ar    1  UNL1       -0.1287
      6 C           6.3523   -1.9456   32.9942 C.3     1  UNL1        0.1825
      7 C           7.5837   -1.2000   33.4158 C.3     1  UNL1        0.0339
      8 C           7.7472   -0.2278   34.5463 C.3     1  UNL1        0.0041
      9 C           6.7198    0.2390   35.5345 C.3     1  UNL1        0.0181
     10 C           7.3018    1.2205   36.5080 C.3     1  UNL1        0.0016
     11 C           6.4391    1.8119   37.5831 C.3     1  UNL1        0.0001
     12 C           4.9944    1.4217   37.6848 C.3     1  UNL1        0.0017
     13 C           4.4123    0.4402   36.7113 C.3     1  UNL1        0.0196
     14 C           5.2750   -0.1512   35.6362 C.3     1  UNL1        0.0716
     15 N           4.5008   -1.1045   34.7748 N.am    1  UNL1       -0.3044
     16 C           4.9802   -1.9031   33.5990 C.2     1  UNL1        0.2449
     17 O           3.9517   -2.7743   32.9411 O.2     1  UNL1       -0.2730
     18 H           3.5527   -1.2215   35.0126 H       1  UNL1        0.1494
     19 C           6.8561   -5.0784   25.8256 C.ar    1  UNL1        0.1547
     20 C           6.9112   -5.0149   27.3232 C.ar    1  UNL1        0.0400
     21 C           6.5502   -3.7441   28.0337 C.ar    1  UNL1        0.0241
     22 C           6.1340   -2.5369   27.2466 C.ar    1  UNL1        0.0033
     23 C           6.0789   -2.6006   25.7489 C.ar    1  UNL1        0.0207
     24 C           6.4400   -3.8713   25.0385 C.ar    1  UNL1        0.0994
     25 N           6.3849   -3.9349   23.5408 N.ar    1  UNL1       -0.2839
     26 C           7.5239   -4.2875   22.6307 C.ar    1  UNL1        0.1826
     27 N           7.0240   -4.2275   21.2178 N.ar    1  UNL1       -0.2280
     28 C           5.5760   -3.8379   21.2545 C.ar    1  UNL1        0.0786
     29 C           4.6803   -3.6602   20.0645 C.3     1  UNL1        0.0538
     30 C           5.1810   -3.6570   22.6902 C.ar    1  UNL1        0.0963
     31 C           7.8083   -7.4951   25.8816 C.3     1  UNL1        0.2525
     32 O           7.2171   -6.3492   25.1151 O.3     1  UNL1       -0.4700
@<TRIPOS>BOND
     1    31    32    1
     2    32    19    1
     3    19    20   ar
     4    20    21   ar
     5    21     1    1
     6     1     2   ar
     7     2     3   ar
     8     3     6    1
     9     6     7    1
    10     7     8    1
    11     9     8    1
    12     9    10    1
    13    10    11    1
    14    11    12    1
    15    12    13    1
    16    14    13    1
    17    14    15    1
    18    15    16   am
    19    16    17    2
    20     3     4   ar
    21     4     5   ar
    22    21    22   ar
    23    22    23   ar
    24    23    24   ar
    25    24    25    1
    26    25    26   ar
    27    26    27   ar
    28    27    28   ar
    29    28    29    1
    30    28    30   ar
    31    24    19   ar
    32    30    25   ar
    33     5     1   ar
    34    16     6    1
    35    14     9    1
    36    15    18    1
@<TRIPOS>MOLECULE
*****
 32 36 0 0 0
SMALL
GASTEIGER

@<TRIPOS>ATOM
      1 C           6.6729   -1.5797   32.7485 C.ar    1  UNL1        0.1233
      2 C           6.3289   -2.2252   31.4389 C.ar    1  UNL1        0.1180
      3 N           7.4976   -3.0643   31.0146 N.ar    1  UNL1       -0.2233
      4 N           8.5639   -2.9374   32.0619 N.ar    1  UNL1       -0.0634
      5 N           8.0542   -2.0199   33.1336 N.ar    1  UNL1       -0.1287
      6 C           7.5847   -3.8860   29.7627 C.3     1  UNL1        0.1825
      7 C           7.9535   -3.1366   28.5167 C.3     1  UNL1        0.0339
      8 C           8.1201   -3.6647   27.1227 C.3     1  UNL1        0.0041
      9 C           7.9592   -5.0724   26.6302 C.3     1  UNL1        0.0181
     10 C           8.2183   -5.1703   25.1561 C.3     1  UNL1        0.0016
     11 C           8.1101   -6.4957   24.4620 C.3     1  UNL1        0.0001
     12 C           7.7427   -7.7231   25.2421 C.3     1  UNL1        0.0017
     13 C           7.4836   -7.6251   26.7163 C.3     1  UNL1        0.0196
     14 C           7.5919   -6.2998   27.4103 C.3     1  UNL1        0.0716
     15 N           7.2947   -6.4226   28.8755 N.am    1  UNL1       -0.3044
     16 C           7.2915   -5.3484   29.9224 C.2     1  UNL1        0.2449
     17 O           6.9500   -5.7957   31.3128 O.2     1  UNL1       -0.2730
     18 H           7.0724   -7.3280   29.1918 H       1  UNL1        0.1494
     19 C           3.6460    0.7999   33.7104 C.ar    1  UNL1        0.1547
     20 C           4.5283   -0.1236   32.9240 C.ar    1  UNL1        0.0400
     21 C           5.7905   -0.6562   33.5350 C.ar    1  UNL1        0.0241
     22 C           6.1703   -0.2652   34.9324 C.ar    1  UNL1        0.0033
     23 C           5.2879    0.6583   35.7189 C.ar    1  UNL1        0.0207
     24 C           4.0258    1.1908   35.1079 C.ar    1  UNL1        0.0994
     25 N           3.1434    2.1144   35.8944 N.ar    1  UNL1       -0.2839
     26 C           2.5881    1.8507   37.2626 C.ar    1  UNL1        0.1826
     27 N           1.7630    3.0371   37.6645 N.ar    1  UNL1       -0.2280
     28 C           1.8083    4.0340   36.5448 C.ar    1  UNL1        0.0786
     29 C           1.1211    5.3672   36.5228 C.3     1  UNL1        0.0538
     30 C           2.6615    3.4638   35.4507 C.ar    1  UNL1        0.0963
     31 C           2.2381    1.3879   31.6076 C.3     1  UNL1        0.2525
     32 O           2.3839    1.3324   33.0994 O.3     1  UNL1       -0.4700
@<TRIPOS>BOND
     1    31    32    1
     2    32    19    1
     3    19    20   ar
     4    20    21   ar
     5    21     1    1
     6     1     2   ar
     7     2     3   ar
     8     3     6    1
     9     6     7    1
    10     7     8    1
    11     9     8    1
    12     9    10    1
    13    10    11    1
    14    11    12    1
    15    12    13    1
    16    14    13    1
    17    14    15    1
    18    15    16   am
    19    16    17    2
    20     3     4   ar
    21     4     5   ar
    22    21    22   ar
    23    22    23   ar
    24    23    24   ar
    25    24    25    1
    26    25    26   ar
    27    26    27   ar
    28    27    28   ar
    29    28    29    1
    30    28    30   ar
    31    24    19   ar
    32    30    25   ar
    33     5     1   ar
    34    16     6    1
    35    14     9    1
    36    15    18    1
@<TRIPOS>MOLECULE
*****
 32 36 0 0 0
SMALL
GASTEIGER

@<TRIPOS>ATOM
      1 C           0.1783    1.8534   19.7643 C.ar    1  UNL1        0.1233
      2 C          -0.8702    2.0907   20.8104 C.ar    1  UNL1        0.1180
      3 N          -1.6947    3.2681   20.3815 N.ar    1  UNL1       -0.2233
      4 N          -1.1558    3.7584   19.0704 N.ar    1  UNL1       -0.0634
      5 N           0.0018    2.8841   18.6889 N.ar    1  UNL1       -0.1287
      6 C          -2.8545    3.8525   21.1321 C.3     1  UNL1        0.1825
      7 C          -4.1911    3.2330   20.8497 C.3     1  UNL1        0.0339
      8 C          -5.5276    3.5872   21.4313 C.3     1  UNL1        0.0041
      9 C          -5.8577    4.6483   22.4389 C.3     1  UNL1        0.0181
     10 C          -7.3246    4.6699   22.7514 C.3     1  UNL1        0.0016
     11 C          -7.8665    5.6606   23.7388 C.3     1  UNL1        0.0001
     12 C          -6.9415    6.6296   24.4136 C.3     1  UNL1        0.0017
     13 C          -5.4746    6.6080   24.1010 C.3     1  UNL1        0.0196
     14 C          -4.9328    5.6174   23.1137 C.3     1  UNL1        0.0716
     15 N          -3.4492    5.7646   22.9476 N.am    1  UNL1       -0.3044
     16 C          -2.5243    4.9792   22.0657 C.2     1  UNL1        0.2449
     17 O          -1.0780    5.3724   22.1253 O.2     1  UNL1       -0.2730
     18 H          -3.0268    6.4700   23.4890 H       1  UNL1        0.1494
     19 C           3.0678   -0.5973   18.5832 C.ar    1  UNL1        0.1547
     20 C           2.0258    0.4814   18.5582 C.ar    1  UNL1        0.0400
     21 C           1.2203    0.7747   19.7892 C.ar    1  UNL1        0.0241
     22 C           1.4569   -0.0106   21.0451 C.ar    1  UNL1        0.0033
     23 C           2.4989   -1.0893   21.0700 C.ar    1  UNL1        0.0207
     24 C           3.3043   -1.3826   19.8391 C.ar    1  UNL1        0.0994
     25 N           4.3464   -2.4614   19.8641 N.ar    1  UNL1       -0.2839
     26 C           4.1456   -3.8909   19.4565 C.ar    1  UNL1        0.1826
     27 N           5.4473   -4.6128   19.6416 N.ar    1  UNL1       -0.2280
     28 C           6.4526   -3.6296   20.1635 C.ar    1  UNL1        0.0786
     29 C           7.8865   -3.9243   20.4905 C.3     1  UNL1        0.0538
     30 C           5.7722   -2.2999   20.3011 C.ar    1  UNL1        0.0963
     31 C           5.1629   -0.1642   17.1091 C.3     1  UNL1        0.2525
     32 O           3.8732   -0.8906   17.3523 O.3     1  UNL1       -0.4700
@<TRIPOS>BOND
     1    31    32    1
     2    32    19    1
     3    19    20   ar
     4    20    21   ar
     5    21     1    1
     6     1     2   ar
     7     2     3   ar
     8     3     6    1
     9     6     7    1
    10     7     8    1
    11     9     8    1
    12     9    10    1
    13    10    11    1
    14    11    12    1
    15    12    13    1
    16    14    13    1
    17    14    15    1
    18    15    16   am
    19    16    17    2
    20     3     4   ar
    21     4     5   ar
    22    21    22   ar
    23    22    23   ar
    24    23    24   ar
    25    24    25    1
    26    25    26   ar
    27    26    27   ar
    28    27    28   ar
    29    28    29    1
    30    28    30   ar
    31    24    19   ar
    32    30    25   ar
    33     5     1   ar
    34    16     6    1
    35    14     9    1
    36    15    18    1
@<TRIPOS>MOLECULE
*****
 32 36 0 0 0
SMALL
GASTEIGER

@<TRIPOS>ATOM
      1 C           7.1636   -2.0555   32.4896 C.ar    1  UNL1        0.1233
      2 C           6.8050   -2.6502   31.1600 C.ar    1  UNL1        0.1180
      3 N           7.9829   -3.4412   30.6732 N.ar    1  UNL1       -0.2233
      4 N           9.0694   -3.3353   31.7019 N.ar    1  UNL1       -0.0634
      5 N           8.5630   -2.4789   32.8245 N.ar    1  UNL1       -0.1287
      6 C           8.0606   -4.2040   29.3840 C.3     1  UNL1        0.1825
      7 C           8.6905   -3.4758   28.2338 C.3     1  UNL1        0.0339
      8 C           8.9134   -3.9580   26.8310 C.3     1  UNL1        0.0041
      9 C           8.5617   -5.2874   26.2319 C.3     1  UNL1        0.0181
     10 C           8.9598   -5.3602   24.7876 C.3     1  UNL1        0.0016
     11 C           8.6962   -6.6087   23.9990 C.3     1  UNL1        0.0001
     12 C           8.0346   -7.7843   24.6548 C.3     1  UNL1        0.0017
     13 C           7.6364   -7.7115   26.0992 C.3     1  UNL1        0.0196
     14 C           7.9000   -6.4630   26.8877 C.3     1  UNL1        0.0716
     15 N           7.4267   -6.5995   28.3045 N.am    1  UNL1       -0.3044
     16 C           7.4981   -5.5942   29.4155 C.2     1  UNL1        0.2449
     17 O           6.9324   -6.0377   30.7320 O.2     1  UNL1       -0.2730
     18 H           7.0146   -7.4632   28.5359 H       1  UNL1        0.1494
     19 C           5.8593    1.0372   34.6071 C.ar    1  UNL1        0.1547
     20 C           6.7448    0.1712   33.7610 C.ar    1  UNL1        0.0400
     21 C           6.2781   -1.1894   33.3356 C.ar    1  UNL1        0.0241
     22 C           4.9259   -1.6840   33.7563 C.ar    1  UNL1        0.0033
     23 C           4.0404   -0.8179   34.6024 C.ar    1  UNL1        0.0207
     24 C           4.5071    0.5426   35.0278 C.ar    1  UNL1        0.0994
     25 N           3.6216    1.4087   35.8739 N.ar    1  UNL1       -0.2839
     26 C           2.7395    2.5168   35.3797 C.ar    1  UNL1        0.1826
     27 N           2.0355    3.1115   36.5631 N.ar    1  UNL1       -0.2280
     28 C           2.4823    2.3711   37.7887 C.ar    1  UNL1        0.0786
     29 C           2.0286    2.6365   39.1936 C.3     1  UNL1        0.0538
     30 C           3.4626    1.3187   37.3627 C.ar    1  UNL1        0.0963
     31 C           7.7759    2.6320   35.3373 C.3     1  UNL1        0.2525
     32 O           6.3260    2.3978   35.0324 O.3     1  UNL1       -0.4700
@<TRIPOS>BOND
     1    31    32    1
     2    32    19    1
     3    19    20   ar
     4    20    21   ar
     5    21     1    1
     6     1     2   ar
     7     2     3   ar
     8     3     6    1
     9     6     7    1
    10     7     8    1
    11     9     8    1
    12     9    10    1
    13    10    11    1
    14    11    12    1
    15    12    13    1
    16    14    13    1
    17    14    15    1
    18    15    16   am
    19    16    17    2
    20     3     4   ar
    21     4     5   ar
    22    21    22   ar
    23    22    23   ar
    24    23    24   ar
    25    24    25    1
    26    25    26   ar
    27    26    27   ar
    28    27    28   ar
    29    28    29    1
    30    28    30   ar
    31    24    19   ar
    32    30    25   ar
    33     5     1   ar
    34    16     6    1
    35    14     9    1
    36    15    18    1
@<TRIPOS>MOLECULE
*****
 32 36 0 0 0
SMALL
GASTEIGER

@<TRIPOS>ATOM
      1 C           6.4517   -3.4153   29.3487 C.ar    1  UNL1        0.1233
      2 C           6.2352   -2.2399   30.2551 C.ar    1  UNL1        0.1180
      3 N           6.4134   -2.7063   31.6695 N.ar    1  UNL1       -0.2233
      4 N           6.7401   -4.1699   31.6373 N.ar    1  UNL1       -0.0634
      5 N           6.7637   -4.6081   30.2029 N.ar    1  UNL1       -0.1287
      6 C           6.2872   -1.8580   32.9002 C.3     1  UNL1        0.1825
      7 C           7.5350   -1.1450   33.3300 C.3     1  UNL1        0.0339
      8 C           7.7335   -0.2328   34.5040 C.3     1  UNL1        0.0041
      9 C           6.7335    0.1918   35.5382 C.3     1  UNL1        0.0181
     10 C           7.3470    1.1179   36.5462 C.3     1  UNL1        0.0016
     11 C           6.5148    1.6611   37.6697 C.3     1  UNL1        0.0001
     12 C           5.0691    1.2784   37.7852 C.3     1  UNL1        0.0017
     13 C           4.4555    0.3523   36.7773 C.3     1  UNL1        0.0196
     14 C           5.2877   -0.1909   35.6538 C.3     1  UNL1        0.0716
     15 N           4.4851   -1.0928   34.7636 N.am    1  UNL1       -0.3044
     16 C           4.9298   -1.8348   33.5382 C.2     1  UNL1        0.2449
     17 O           3.8782   -2.6629   32.8613 O.2     1  UNL1       -0.2730
     18 H           3.5415   -1.2139   35.0173 H       1  UNL1        0.1494
     19 C           5.7120   -2.1959   25.6452 C.ar    1  UNL1        0.1547
     20 C           5.7933   -2.2107   27.1429 C.ar    1  UNL1        0.0400
     21 C           6.3704   -3.4005   27.8509 C.ar    1  UNL1        0.0241
     22 C           6.8662   -4.5755   27.0613 C.ar    1  UNL1        0.0033
     23 C           6.7849   -4.5606   25.5636 C.ar    1  UNL1        0.0207
     24 C           6.2078   -3.3709   24.8556 C.ar    1  UNL1        0.0994
     25 N           6.1265   -3.3561   23.3578 N.ar    1  UNL1       -0.2839
     26 C           4.9262   -3.7225   22.5362 C.ar    1  UNL1        0.1826
     27 N           5.2892   -3.5651   21.0894 N.ar    1  UNL1       -0.2280
     28 C           6.7138   -3.1015   21.0167 C.ar    1  UNL1        0.0786
     29 C           7.4856   -2.8170   19.7623 C.3     1  UNL1        0.0538
     30 C           7.2314   -2.9723   22.4186 C.ar    1  UNL1        0.0963
     31 C           3.6504   -0.8873   24.7578 C.3     1  UNL1        0.2525
     32 O           5.1349   -1.0061   24.9372 O.3     1  UNL1       -0.4700
@<TRIPOS>BOND
     1    31    32    1
     2    32    19    1
     3    19    20   ar
     4    20    21   ar
     5    21     1    1
     6     1     2   ar
     7     2     3   ar
     8     3     6    1
     9     6     7    1
    10     7     8    1
    11     9     8    1
    12     9    10    1
    13    10    11    1
    14    11    12    1
    15    12    13    1
    16    14    13    1
    17    14    15    1
    18    15    16   am
    19    16    17    2
    20     3     4   ar
    21     4     5   ar
    22    21    22   ar
    23    22    23   ar
    24    23    24   ar
    25    24    25    1
    26    25    26   ar
    27    26    27   ar
    28    27    28   ar
    29    28    29    1
    30    28    30   ar
    31    24    19   ar
    32    30    25   ar
    33     5     1   ar
    34    16     6    1
    35    14     9    1
    36    15    18    1
@<TRIPOS>MOLECULE
*****
 32 36 0 0 0
SMALL
GASTEIGER

@<TRIPOS>ATOM
      1 C          -0.3309    1.3885   27.4616 C.ar    1  UNL1        0.1233
      2 C           0.9066    1.4925   28.3028 C.ar    1  UNL1        0.1180
      3 N           0.6597    0.7528   29.5842 N.ar    1  UNL1       -0.2233
      4 N          -0.7305    0.1916   29.5348 N.ar    1  UNL1       -0.0634
      5 N          -1.3427    0.5845   28.2230 N.ar    1  UNL1       -0.1287
      6 C           1.6321    0.6010   30.7161 C.3     1  UNL1        0.1825
      7 C           2.6189   -0.5206   30.5804 C.3     1  UNL1        0.0339
      8 C           3.7064   -0.9294   31.5292 C.3     1  UNL1        0.0041
      9 C           4.0759   -0.3175   32.8480 C.3     1  UNL1        0.0181
     10 C           5.2315   -1.0349   33.4803 C.3     1  UNL1        0.0016
     11 C           5.7601   -0.5806   34.8085 C.3     1  UNL1        0.0001
     12 C           5.1333    0.5912   35.5042 C.3     1  UNL1        0.0017
     13 C           3.9777    1.3085   34.8718 C.3     1  UNL1        0.0196
     14 C           3.4490    0.8542   33.5437 C.3     1  UNL1        0.0716
     15 N           2.2978    1.7034   33.0925 N.am    1  UNL1       -0.3044
     16 C           1.4892    1.5908   31.8341 C.2     1  UNL1        0.2449
     17 O           0.3928    2.6015   31.6723 O.2     1  UNL1       -0.2730
     18 H           2.0387    2.4310   33.7030 H       1  UNL1        0.1494
     19 C           0.2023    2.1940   23.6124 C.ar    1  UNL1        0.1547
     20 C           0.3943    1.5985   24.9756 C.ar    1  UNL1        0.0400
     21 C          -0.5228    1.9839   26.0983 C.ar    1  UNL1        0.0241
     22 C          -1.6319    2.9647   25.8577 C.ar    1  UNL1        0.0033
     23 C          -1.8239    3.5602   24.4944 C.ar    1  UNL1        0.0207
     24 C          -0.9068    3.1748   23.3717 C.ar    1  UNL1        0.0994
     25 N          -1.0988    3.7703   22.0084 N.ar    1  UNL1       -0.2839
     26 C          -0.2924    4.8855   21.4118 C.ar    1  UNL1        0.1826
     27 N          -0.8261    5.1595   20.0371 N.ar    1  UNL1       -0.2280
     28 C          -1.9624    4.2137   19.7840 C.ar    1  UNL1        0.0786
     29 C          -2.7857    4.1394   18.5323 C.3     1  UNL1        0.0538
     30 C          -2.1309    3.3550   21.0023 C.ar    1  UNL1        0.0963
     31 C           0.7030    0.7515   21.5103 C.3     1  UNL1        0.2525
     32 O           1.1194    1.8086   22.4897 O.3     1  UNL1       -0.4700
@<TRIPOS>BOND
     1    31    32    1
     2    32    19    1
     3    19    20   ar
     4    20    21   ar
     5    21     1    1
     6     1     2   ar
     7     2     3   ar
     8     3     6    1
     9     6     7    1
    10     7     8    1
    11     9     8    1
    12     9    10    1
    13    10    11    1
    14    11    12    1
    15    12    13    1
    16    14    13    1
    17    14    15    1
    18    15    16   am
    19    16    17    2
    20     3     4   ar
    21     4     5   ar
    22    21    22   ar
    23    22    23   ar
    24    23    24   ar
    25    24    25    1
    26    25    26   ar
    27    26    27   ar
    28    27    28   ar
    29    28    29    1
    30    28    30   ar
    31    24    19   ar
    32    30    25   ar
    33     5     1   ar
    34    16     6    1
    35    14     9    1
    36    15    18    1
@<TRIPOS>MOLECULE
*****
 32 36 0 0 0
SMALL
GASTEIGER

@<TRIPOS>ATOM
      1 C          -0.3191    1.4023   27.4904 C.ar    1  UNL1        0.1233
      2 C           0.9172    1.4954   28.3347 C.ar    1  UNL1        0.1180
      3 N           0.6488    0.7871   29.6294 N.ar    1  UNL1       -0.2233
      4 N          -0.7534    0.2562   29.5852 N.ar    1  UNL1       -0.0634
      5 N          -1.3516    0.6364   28.2632 N.ar    1  UNL1       -0.1287
      6 C           1.6133    0.6361   30.7683 C.3     1  UNL1        0.1825
      7 C           2.5940   -0.4923   30.6454 C.3     1  UNL1        0.0339
      8 C           3.6730   -0.9019   31.6034 C.3     1  UNL1        0.0041
      9 C           4.0381   -0.2844   32.9208 C.3     1  UNL1        0.0181
     10 C           5.1853   -1.0049   33.5647 C.3     1  UNL1        0.0016
     11 C           5.7085   -0.5458   34.8934 C.3     1  UNL1        0.0001
     12 C           5.0844    0.6339   35.5782 C.3     1  UNL1        0.0017
     13 C           3.9372    1.3544   34.9343 C.3     1  UNL1        0.0196
     14 C           3.4140    0.8953   33.6056 C.3     1  UNL1        0.0716
     15 N           2.2709    1.7488   33.1421 N.am    1  UNL1       -0.3044
     16 C           1.4695    1.6335   31.8794 C.2     1  UNL1        0.2449
     17 O           0.3803    2.6499   31.7047 O.2     1  UNL1       -0.2730
     18 H           2.0125    2.4816   33.7466 H       1  UNL1        0.1494
     19 C          -1.8016    3.4842   24.4544 C.ar    1  UNL1        0.1547
     20 C          -1.6284    2.9119   25.8300 C.ar    1  UNL1        0.0400
     21 C          -0.4924    1.9746   26.1148 C.ar    1  UNL1        0.0241
     22 C           0.4703    1.6096   25.0239 C.ar    1  UNL1        0.0033
     23 C           0.2969    2.1819   23.6482 C.ar    1  UNL1        0.0207
     24 C          -0.8390    3.1192   23.3635 C.ar    1  UNL1        0.0994
     25 N          -1.0122    3.6915   21.9878 N.ar    1  UNL1       -0.2839
     26 C          -0.1466    4.7394   21.3532 C.ar    1  UNL1        0.1826
     27 N          -0.6810    5.0118   19.9785 N.ar    1  UNL1       -0.2280
     28 C          -1.8769    4.1324   19.7632 C.ar    1  UNL1        0.0786
     29 C          -2.7200    4.0784   18.5238 C.3     1  UNL1        0.0538
     30 C          -2.0816    3.3164   21.0051 C.ar    1  UNL1        0.0963
     31 C          -4.3319    3.8879   24.0249 C.3     1  UNL1        0.2525
     32 O          -2.9376    4.4215   24.1696 O.3     1  UNL1       -0.4700
@<TRIPOS>BOND
     1    31    32    1
     2    32    19    1
     3    19    20   ar
     4    20    21   ar
     5    21     1    1
     6     1     2   ar
     7     2     3   ar
     8     3     6    1
     9     6     7    1
    10     7     8    1
    11     9     8    1
    12     9    10    1
    13    10    11    1
    14    11    12    1
    15    12    13    1
    16    14    13    1
    17    14    15    1
    18    15    16   am
    19    16    17    2
    20     3     4   ar
    21     4     5   ar
    22    21    22   ar
    23    22    23   ar
    24    23    24   ar
    25    24    25    1
    26    25    26   ar
    27    26    27   ar
    28    27    28   ar
    29    28    29    1
    30    28    30   ar
    31    24    19   ar
    32    30    25   ar
    33     5     1   ar
    34    16     6    1
    35    14     9    1
    36    15    18    1
