@<TRIPOS>MOLECULE
*****
 21 24 0 0 0
SMALL
GASTEIGER

@<TRIPOS>ATOM
      1 O          -7.7494  -16.7949   23.4631 O.2     1  UNL1       -0.2698
      2 C          -6.4313  -17.3741   23.0424 C.2     1  UNL1        0.2495
      3 N          -5.0800  -16.7874   23.3247 N.am    1  UNL1       -0.2804
      4 C          -4.0466  -17.6924   22.7223 C.ar    1  UNL1        0.0506
      5 C          -2.5487  -17.6209   22.6853 C.ar    1  UNL1        0.0147
      6 C          -1.7635  -18.6955   21.9935 C.ar    1  UNL1        0.0013
      7 C          -2.4761  -19.8416   21.3388 C.ar    1  UNL1        0.0001
      8 C          -3.9739  -19.9131   21.3758 C.ar    1  UNL1        0.0014
      9 C          -4.7591  -18.8384   22.0675 C.ar    1  UNL1        0.0179
     10 C          -6.2330  -18.6417   22.2653 C.2     1  UNL1        0.0546
     11 C          -7.3180  -19.5528   21.7726 C.2     1  UNL1        0.0007
     12 H          -4.9025  -15.9545   23.8188 H       1  UNL1        0.1552
     13 C          -8.7556  -19.2245   22.0481 C.2     1  UNL1       -0.0160
     14 C          -9.3863  -19.6453   23.3423 C.2     1  UNL1       -0.0038
     15 C         -10.8238  -19.3171   23.6178 C.2     1  UNL1        0.0025
     16 C         -11.6305  -18.5680   22.5989 C.2     1  UNL1        0.0366
     17 C         -13.0577  -18.1065   22.5907 C.2     1  UNL1        0.1233
     18 N         -13.3091  -17.4005   21.2913 N.2     1  UNL1       -0.1467
     19 N         -12.0372  -17.4256   20.4965 N.2     1  UNL1       -0.1520
     20 C         -10.9998  -18.1472   21.3047 C.2     1  UNL1        0.0864
     21 C          -9.5623  -18.4754   21.0292 C.3     1  UNL1        0.0739
@<TRIPOS>BOND
     1     1     2    2
     2     2     3   am
     3     3     4    1
     4     4     5   ar
     5     5     6   ar
     6     6     7   ar
     7     7     8   ar
     8     8     9   ar
     9     9    10    1
    10    10    11    2
    11    11    13    1
    12    13    14    2
    13    14    15    1
    14    15    16    2
    15    16    17    1
    16    17    18    2
    17    18    19    1
    18    19    20    2
    19    20    21    1
    20    10     2    1
    21    21    13    1
    22     9     4   ar
    23    20    16    1
    24     3    12    1
@<TRIPOS>MOLECULE
*****
 21 24 0 0 0
SMALL
GASTEIGER

@<TRIPOS>ATOM
      1 O          -5.2812  -16.9639   22.8396 O.2     1  UNL1       -0.2698
      2 C          -6.6922  -17.4716   22.8748 C.2     1  UNL1        0.2495
      3 N          -7.8414  -16.8327   23.5967 N.am    1  UNL1       -0.2804
      4 C          -9.0612  -17.6736   23.3624 C.ar    1  UNL1        0.0506
      5 C         -10.4808  -17.5340   23.8263 C.ar    1  UNL1        0.0147
      6 C         -11.5051  -18.5530   23.4235 C.ar    1  UNL1        0.0013
      7 C         -11.1098  -19.7117   22.5568 C.ar    1  UNL1        0.0001
      8 C          -9.6902  -19.8514   22.0929 C.ar    1  UNL1        0.0014
      9 C          -8.6660  -18.8323   22.4957 C.ar    1  UNL1        0.0179
     10 C          -7.2018  -18.7075   22.1944 C.2     1  UNL1        0.0546
     11 C          -6.3899  -19.6525   21.3592 C.2     1  UNL1        0.0007
     12 H          -7.8020  -16.0065   24.1306 H       1  UNL1        0.1552
     13 C          -4.9274  -19.3968   21.1445 C.2     1  UNL1       -0.0160
     14 C          -3.9522  -19.6396   22.2580 C.2     1  UNL1       -0.0038
     15 C          -2.4899  -19.3839   22.0433 C.2     1  UNL1        0.0025
     16 C          -2.0028  -18.8854   20.7151 C.2     1  UNL1        0.0366
     17 C          -0.6310  -18.5462   20.2120 C.2     1  UNL1        0.1233
     18 N          -0.7584  -18.0938   18.7876 N.2     1  UNL1       -0.1467
     19 N          -2.2089  -18.1533   18.4103 N.2     1  UNL1       -0.1520
     20 C          -2.9780  -18.6425   19.6016 C.2     1  UNL1        0.0864
     21 C          -4.4403  -18.8982   19.8162 C.3     1  UNL1        0.0739
@<TRIPOS>BOND
     1     1     2    2
     2     2     3   am
     3     3     4    1
     4     4     5   ar
     5     5     6   ar
     6     6     7   ar
     7     7     8   ar
     8     8     9   ar
     9     9    10    1
    10    10    11    2
    11    11    13    1
    12    13    14    2
    13    14    15    1
    14    15    16    2
    15    16    17    1
    16    17    18    2
    17    18    19    1
    18    19    20    2
    19    20    21    1
    20    10     2    1
    21    21    13    1
    22     9     4   ar
    23    20    16    1
    24     3    12    1
@<TRIPOS>MOLECULE
*****
 21 24 0 0 0
SMALL
GASTEIGER

@<TRIPOS>ATOM
      1 O          -8.8425  -19.4457   20.6626 O.2     1  UNL1       -0.2698
      2 C          -7.3623  -19.4039   20.9017 C.2     1  UNL1        0.2495
      3 N          -6.3279  -20.2072   20.1703 N.am    1  UNL1       -0.2804
      4 C          -4.9829  -19.8512   20.7308 C.ar    1  UNL1        0.0506
      5 C          -3.5995  -20.3266   20.3990 C.ar    1  UNL1        0.0147
      6 C          -2.4191  -19.7787   21.1449 C.ar    1  UNL1        0.0013
      7 C          -2.6221  -18.7554   22.2227 C.ar    1  UNL1        0.0001
      8 C          -4.0055  -18.2800   22.5546 C.ar    1  UNL1        0.0014
      9 C          -5.1859  -18.8279   21.8086 C.ar    1  UNL1        0.0179
     10 C          -6.6564  -18.5515   21.9142 C.2     1  UNL1        0.0546
     11 C          -7.3069  -17.5912   22.8654 C.2     1  UNL1        0.0007
     12 H          -6.5014  -20.8544   19.4491 H       1  UNL1        0.1552
     13 C          -8.7971  -17.4193   22.8556 C.2     1  UNL1       -0.0160
     14 C          -9.4317  -16.4291   21.9247 C.2     1  UNL1       -0.0038
     15 C         -10.9218  -16.2572   21.9149 C.2     1  UNL1        0.0025
     16 C         -11.7772  -17.0756   22.8360 C.2     1  UNL1        0.0366
     17 C         -13.2612  -17.1246   23.0487 C.2     1  UNL1        0.1233
     18 N         -13.5438  -18.1452   24.1111 N.2     1  UNL1       -0.1467
     19 N         -12.2344  -18.7270   24.5549 N.2     1  UNL1       -0.1520
     20 C         -11.1426  -18.0659   23.7669 C.2     1  UNL1        0.0864
     21 C          -9.6525  -18.2378   23.7767 C.3     1  UNL1        0.0739
@<TRIPOS>BOND
     1     1     2    2
     2     2     3   am
     3     3     4    1
     4     4     5   ar
     5     5     6   ar
     6     6     7   ar
     7     7     8   ar
     8     8     9   ar
     9     9    10    1
    10    10    11    2
    11    11    13    1
    12    13    14    2
    13    14    15    1
    14    15    16    2
    15    16    17    1
    16    17    18    2
    17    18    19    1
    18    19    20    2
    19    20    21    1
    20    10     2    1
    21    21    13    1
    22     9     4   ar
    23    20    16    1
    24     3    12    1
@<TRIPOS>MOLECULE
*****
 21 24 0 0 0
SMALL
GASTEIGER

@<TRIPOS>ATOM
      1 O          -8.4146  -18.7150   19.6729 O.2     1  UNL1       -0.2698
      2 C          -9.5008  -18.6212   20.7032 C.2     1  UNL1        0.2495
      3 N         -10.9056  -18.1533   20.4633 N.am    1  UNL1       -0.2804
      4 C         -11.6458  -18.2218   21.7662 C.ar    1  UNL1        0.0506
      5 C         -13.0601  -17.8854   22.1359 C.ar    1  UNL1        0.0147
      6 C         -13.5270  -18.0593   23.5506 C.ar    1  UNL1        0.0013
      7 C         -12.5797  -18.5696   24.5957 C.ar    1  UNL1        0.0001
      8 C         -11.1655  -18.9060   24.2260 C.ar    1  UNL1        0.0014
      9 C         -10.6985  -18.7321   22.8113 C.ar    1  UNL1        0.0179
     10 C          -9.3728  -18.9789   22.1543 C.2     1  UNL1        0.0546
     11 C          -8.1363  -19.4932   22.8299 C.2     1  UNL1        0.0007
     12 H         -11.2766  -17.8538   19.6020 H       1  UNL1        0.1552
     13 C          -6.8768  -19.6911   22.0394 C.2     1  UNL1       -0.0160
     14 C          -6.7246  -20.8971   21.1605 C.2     1  UNL1       -0.0038
     15 C          -5.4653  -21.0950   20.3700 C.2     1  UNL1        0.0025
     16 C          -4.3582  -20.0868   20.4584 C.2     1  UNL1        0.0366
     17 C          -3.0117  -20.0146   19.8013 C.2     1  UNL1        0.1233
     18 N          -2.3317  -18.7639   20.2740 N.2     1  UNL1       -0.1467
     19 N          -3.2579  -18.0632   21.2233 N.2     1  UNL1       -0.1520
     20 C          -4.5104  -18.8808   21.3372 C.2     1  UNL1        0.0864
     21 C          -5.7697  -18.6829   22.1277 C.3     1  UNL1        0.0739
@<TRIPOS>BOND
     1     1     2    2
     2     2     3   am
     3     3     4    1
     4     4     5   ar
     5     5     6   ar
     6     6     7   ar
     7     7     8   ar
     8     8     9   ar
     9     9    10    1
    10    10    11    2
    11    11    13    1
    12    13    14    2
    13    14    15    1
    14    15    16    2
    15    16    17    1
    16    17    18    2
    17    18    19    1
    18    19    20    2
    19    20    21    1
    20    10     2    1
    21    21    13    1
    22     9     4   ar
    23    20    16    1
    24     3    12    1
@<TRIPOS>MOLECULE
*****
 21 24 0 0 0
SMALL
GASTEIGER

@<TRIPOS>ATOM
      1 O          -8.0377  -17.1308   23.1991 O.2     1  UNL1       -0.2698
      2 C          -6.8955  -17.8633   22.5597 C.2     1  UNL1        0.2495
      3 N          -5.4376  -17.5870   22.7792 N.am    1  UNL1       -0.2804
      4 C          -4.6516  -18.5536   21.9437 C.ar    1  UNL1        0.0506
      5 C          -3.1764  -18.7510   21.7580 C.ar    1  UNL1        0.0147
      6 C          -2.6733  -19.8222   20.8364 C.ar    1  UNL1        0.0013
      7 C          -3.6454  -20.6960   20.1005 C.ar    1  UNL1        0.0001
      8 C          -5.1207  -20.4985   20.2863 C.ar    1  UNL1        0.0014
      9 C          -5.6238  -19.4274   21.2079 C.ar    1  UNL1        0.0179
     10 C          -7.0105  -19.0007   21.5886 C.2     1  UNL1        0.0546
     11 C          -8.2881  -19.6054   21.0864 C.2     1  UNL1        0.0007
     12 H          -5.0624  -16.8930   23.3682 H       1  UNL1        0.1552
     13 C          -9.6076  -19.0706   21.5588 C.2     1  UNL1       -0.0160
     14 C         -10.4158  -18.1742   20.6681 C.2     1  UNL1       -0.0038
     15 C         -11.7352  -17.6393   21.1405 C.2     1  UNL1        0.0025
     16 C         -12.2464  -18.0010   22.5035 C.2     1  UNL1        0.0366
     17 C         -13.5013  -17.6289   23.2361 C.2     1  UNL1        0.1233
     18 N         -13.4687  -18.2954   24.5795 N.2     1  UNL1       -0.1467
     19 N         -12.1936  -19.0794   24.6772 N.2     1  UNL1       -0.1520
     20 C         -11.4382  -18.8974   23.3941 C.2     1  UNL1        0.0864
     21 C         -10.1188  -19.4322   22.9218 C.3     1  UNL1        0.0739
@<TRIPOS>BOND
     1     1     2    2
     2     2     3   am
     3     3     4    1
     4     4     5   ar
     5     5     6   ar
     6     6     7   ar
     7     7     8   ar
     8     8     9   ar
     9     9    10    1
    10    10    11    2
    11    11    13    1
    12    13    14    2
    13    14    15    1
    14    15    16    2
    15    16    17    1
    16    17    18    2
    17    18    19    1
    18    19    20    2
    19    20    21    1
    20    10     2    1
    21    21    13    1
    22     9     4   ar
    23    20    16    1
    24     3    12    1
@<TRIPOS>MOLECULE
*****
 21 24 0 0 0
SMALL
GASTEIGER

@<TRIPOS>ATOM
      1 O          -6.3350  -16.7187   22.7342 O.2     1  UNL1       -0.2698
      2 C          -7.8008  -16.9269   22.4937 C.2     1  UNL1        0.2495
      3 N          -8.9109  -16.0608   23.0110 N.am    1  UNL1       -0.2804
      4 C         -10.2102  -16.6363   22.5308 C.ar    1  UNL1        0.0506
      5 C         -11.6332  -16.2057   22.7296 C.ar    1  UNL1        0.0147
      6 C         -12.7491  -16.9969   22.1144 C.ar    1  UNL1        0.0013
      7 C         -12.4421  -18.2188   21.3003 C.ar    1  UNL1        0.0001
      8 C         -11.0191  -18.6495   21.1015 C.ar    1  UNL1        0.0014
      9 C          -9.9031  -17.8582   21.7167 C.ar    1  UNL1        0.0179
     10 C          -8.4141  -18.0378   21.6939 C.2     1  UNL1        0.0546
     11 C          -7.6691  -19.1356   20.9939 C.2     1  UNL1        0.0007
     12 H          -8.8053  -15.2558   23.5679 H       1  UNL1        0.1552
     13 C          -6.1713  -19.1860   21.0599 C.2     1  UNL1       -0.0160
     14 C          -5.4912  -19.6615   22.3094 C.2     1  UNL1       -0.0038
     15 C          -3.9935  -19.7120   22.3754 C.2     1  UNL1        0.0025
     16 C          -3.1760  -19.2869   21.1917 C.2     1  UNL1        0.0366
     17 C          -1.6945  -19.2281   20.9642 C.2     1  UNL1        0.1233
     18 N          -1.4591  -18.7163   19.5740 N.2     1  UNL1       -0.1467
     19 N          -2.7950  -18.4587   18.9424 N.2     1  UNL1       -0.1520
     20 C          -3.8561  -18.8114   19.9422 C.2     1  UNL1        0.0864
     21 C          -5.3538  -18.7609   19.8762 C.3     1  UNL1        0.0739
@<TRIPOS>BOND
     1     1     2    2
     2     2     3   am
     3     3     4    1
     4     4     5   ar
     5     5     6   ar
     6     6     7   ar
     7     7     8   ar
     8     8     9   ar
     9     9    10    1
    10    10    11    2
    11    11    13    1
    12    13    14    2
    13    14    15    1
    14    15    16    2
    15    16    17    1
    16    17    18    2
    17    18    19    1
    18    19    20    2
    19    20    21    1
    20    10     2    1
    21    21    13    1
    22     9     4   ar
    23    20    16    1
    24     3    12    1
@<TRIPOS>MOLECULE
*****
 21 24 0 0 0
SMALL
GASTEIGER

@<TRIPOS>ATOM
      1 O          -7.9533  -19.6564   20.3050 O.2     1  UNL1       -0.2698
      2 C          -6.5618  -19.3991   20.8024 C.2     1  UNL1        0.2495
      3 N          -5.2988  -19.9580   20.2171 N.am    1  UNL1       -0.2804
      4 C          -4.1453  -19.4421   21.0254 C.ar    1  UNL1        0.0506
      5 C          -2.6652  -19.6582   20.9137 C.ar    1  UNL1        0.0147
      6 C          -1.7352  -18.9966   21.8870 C.ar    1  UNL1        0.0013
      7 C          -2.2852  -18.1189   22.9719 C.ar    1  UNL1        0.0001
      8 C          -3.7654  -17.9029   23.0836 C.ar    1  UNL1        0.0014
      9 C          -4.6954  -18.5645   22.1104 C.ar    1  UNL1        0.0179
     10 C          -6.1888  -18.5379   21.9725 C.2     1  UNL1        0.0546
     11 C          -7.1420  -17.7827   22.8507 C.2     1  UNL1        0.0007
     12 H          -5.2377  -20.5580   19.4390 H       1  UNL1        0.1552
     13 C          -8.6176  -17.8518   22.5897 C.2     1  UNL1       -0.0160
     14 C          -9.4431  -18.9274   23.2312 C.2     1  UNL1       -0.0038
     15 C         -10.9185  -18.9966   22.9702 C.2     1  UNL1        0.0025
     16 C         -11.5685  -17.9901   22.0677 C.2     1  UNL1        0.0366
     17 C         -12.9907  -17.8078   21.6271 C.2     1  UNL1        0.1233
     18 N         -13.0441  -16.6194   20.7133 N.2     1  UNL1       -0.1467
     19 N         -11.6550  -16.0673   20.5892 N.2     1  UNL1       -0.1520
     20 C         -10.7430  -16.9144   21.4263 C.2     1  UNL1        0.0864
     21 C          -9.2675  -16.8453   21.6872 C.3     1  UNL1        0.0739
@<TRIPOS>BOND
     1     1     2    2
     2     2     3   am
     3     3     4    1
     4     4     5   ar
     5     5     6   ar
     6     6     7   ar
     7     7     8   ar
     8     8     9   ar
     9     9    10    1
    10    10    11    2
    11    11    13    1
    12    13    14    2
    13    14    15    1
    14    15    16    2
    15    16    17    1
    16    17    18    2
    17    18    19    1
    18    19    20    2
    19    20    21    1
    20    10     2    1
    21    21    13    1
    22     9     4   ar
    23    20    16    1
    24     3    12    1
@<TRIPOS>MOLECULE
*****
 21 24 0 0 0
SMALL
GASTEIGER

@<TRIPOS>ATOM
      1 O          -6.0097  -18.5150   19.3979 O.2     1  UNL1       -0.2698
      2 C          -7.1289  -18.8994   20.3197 C.2     1  UNL1        0.2495
      3 N          -8.5927  -18.8552   19.9956 N.am    1  UNL1       -0.2804
      4 C          -9.3493  -19.3240   21.2030 C.ar    1  UNL1        0.0506
      5 C         -10.8166  -19.4900   21.4661 C.ar    1  UNL1        0.0147
      6 C         -11.2877  -19.9899   22.7995 C.ar    1  UNL1        0.0013
      7 C         -10.2913  -20.3238   23.8700 C.ar    1  UNL1        0.0001
      8 C          -8.8239  -20.1578   23.6069 C.ar    1  UNL1        0.0014
      9 C          -8.3529  -19.6579   22.2734 C.ar    1  UNL1        0.0179
     10 C          -6.9807  -19.3955   21.7275 C.2     1  UNL1        0.0546
     11 C          -5.6872  -19.5943   22.4607 C.2     1  UNL1        0.0007
     12 H          -8.9877  -18.5688   19.1404 H       1  UNL1        0.1552
     13 C          -4.3853  -19.2877   21.7816 C.2     1  UNL1       -0.0160
     14 C          -3.7190  -20.3291   20.9322 C.2     1  UNL1       -0.0038
     15 C          -2.4171  -20.0225   20.2531 C.2     1  UNL1        0.0025
     16 C          -1.7816  -18.6745   20.4235 C.2     1  UNL1        0.0366
     17 C          -0.5119  -18.0878   19.8816 C.2     1  UNL1        0.1233
     18 N          -0.3935  -16.6838   20.3961 N.2     1  UNL1       -0.1467
     19 N          -1.5901  -16.4027   21.2560 N.2     1  UNL1       -0.1520
     20 C          -2.4480  -17.6331   21.2728 C.2     1  UNL1        0.0864
     21 C          -3.7498  -17.9397   21.9519 C.3     1  UNL1        0.0739
@<TRIPOS>BOND
     1     1     2    2
     2     2     3   am
     3     3     4    1
     4     4     5   ar
     5     5     6   ar
     6     6     7   ar
     7     7     8   ar
     8     8     9   ar
     9     9    10    1
    10    10    11    2
    11    11    13    1
    12    13    14    2
    13    14    15    1
    14    15    16    2
    15    16    17    1
    16    17    18    2
    17    18    19    1
    18    19    20    2
    19    20    21    1
    20    10     2    1
    21    21    13    1
    22     9     4   ar
    23    20    16    1
    24     3    12    1
@<TRIPOS>MOLECULE
*****
 21 24 0 0 0
SMALL
GASTEIGER

@<TRIPOS>ATOM
      1 O          -8.0468  -20.7166   23.4504 O.2     1  UNL1       -0.2698
      2 C          -9.3199  -19.9236   23.4747 C.2     1  UNL1        0.2495
      3 N         -10.4984  -20.1751   24.3680 N.am    1  UNL1       -0.2804
      4 C         -11.5448  -19.1468   24.0554 C.ar    1  UNL1        0.0506
      5 C         -12.9131  -18.9036   24.6196 C.ar    1  UNL1        0.0147
      6 C         -13.7496  -17.7733   24.0974 C.ar    1  UNL1        0.0013
      7 C         -13.2178  -16.8863   23.0110 C.ar    1  UNL1        0.0001
      8 C         -11.8495  -17.1295   22.4467 C.ar    1  UNL1        0.0014
      9 C         -11.0130  -18.2598   22.9689 C.ar    1  UNL1        0.0179
     10 C          -9.6379  -18.7399   22.6101 C.2     1  UNL1        0.0546
     11 C          -8.7388  -18.1413   21.5693 C.2     1  UNL1        0.0007
     12 H         -10.5721  -20.8896   25.0412 H       1  UNL1        0.1552
     13 C          -7.3829  -18.7325   21.3196 C.2     1  UNL1       -0.0160
     14 C          -7.2024  -19.7704   20.2518 C.2     1  UNL1       -0.0038
     15 C          -5.8466  -20.3617   20.0021 C.2     1  UNL1        0.0025
     16 C          -4.6714  -19.9150   20.8203 C.2     1  UNL1        0.0366
     17 C          -3.2259  -20.3151   20.8024 C.2     1  UNL1        0.1233
     18 N          -2.5131  -19.5246   21.8593 N.2     1  UNL1       -0.1467
     19 N          -3.5180  -18.6358   22.5303 N.2     1  UNL1       -0.1520
     20 C          -4.8520  -18.8772   21.8881 C.2     1  UNL1        0.0864
     21 C          -6.2077  -18.2859   22.1378 C.3     1  UNL1        0.0739
@<TRIPOS>BOND
     1     1     2    2
     2     2     3   am
     3     3     4    1
     4     4     5   ar
     5     5     6   ar
     6     6     7   ar
     7     7     8   ar
     8     8     9   ar
     9     9    10    1
    10    10    11    2
    11    11    13    1
    12    13    14    2
    13    14    15    1
    14    15    16    2
    15    16    17    1
    16    17    18    2
    17    18    19    1
    18    19    20    2
    19    20    21    1
    20    10     2    1
    21    21    13    1
    22     9     4   ar
    23    20    16    1
    24     3    12    1
