@<TRIPOS>MOLECULE
*****
 17 19 0 0 0
SMALL
GASTEIGER

@<TRIPOS>ATOM
      1 C          -9.7794  -17.6427   22.6426 C.3     1  UNL1        0.0347
      2 C          -9.4299  -18.5824   23.7583 C.3     1  UNL1        0.0054
      3 C         -10.2393  -19.8328   23.5818 C.3     1  UNL1        0.0004
      4 C         -11.0890  -19.6660   22.3571 C.3     1  UNL1        0.0017
      5 C         -10.8048  -18.3124   21.7766 C.3     1  UNL1        0.0208
      6 C         -11.1543  -17.3727   20.6608 C.3     1  UNL1        0.0689
      7 N         -10.3449  -16.1222   20.8373 N.3     1  UNL1       -0.2972
      8 C          -9.4951  -16.2891   22.0621 C.3     1  UNL1        0.0726
      9 H         -10.9659  -15.3214   20.9533 H       1  UNL1        0.1233
     10 CL         -5.6775  -14.9637   26.1063 Cl      1  UNL1       -0.0814
     11 C          -6.7029  -15.6334   25.2405 C.ar    1  UNL1        0.0682
     12 C          -6.3354  -16.0912   23.8601 C.ar    1  UNL1        0.0119
     13 C          -7.3609  -16.7610   22.9942 C.ar    1  UNL1       -0.0033
     14 C          -8.7539  -16.9729   23.5086 C.ar    1  UNL1       -0.0206
     15 C          -9.1214  -16.5151   24.8889 C.ar    1  UNL1        0.0080
     16 C          -8.0960  -15.8454   25.7548 C.ar    1  UNL1        0.0679
     17 CL         -8.4635  -15.3875   27.1351 Cl      1  UNL1       -0.0814
@<TRIPOS>BOND
     1    10    11    1
     2    11    12   ar
     3    12    13   ar
     4    13    14   ar
     5     1    14    1
     6     1     2    1
     7     2     3    1
     8     3     4    1
     9     5     4    1
    10     5     6    1
    11     6     7    1
    12     7     8    1
    13    14    15   ar
    14    15    16   ar
    15    16    17    1
    16    16    11   ar
    17     5     1    1
    18     8     1    1
    19     7     9    1
@<TRIPOS>MOLECULE
*****
 17 19 0 0 0
SMALL
GASTEIGER

@<TRIPOS>ATOM
      1 C         -10.1750  -17.8155   23.1277 C.3     1  UNL1        0.0347
      2 C         -10.5051  -16.3524   23.1485 C.3     1  UNL1        0.0054
      3 C         -11.8414  -16.1693   22.4923 C.3     1  UNL1        0.0004
      4 C         -12.3373  -17.5193   22.0658 C.3     1  UNL1        0.0017
      5 C         -11.3074  -18.5366   22.4585 C.3     1  UNL1        0.0208
      6 C         -10.9773  -19.9997   22.4376 C.3     1  UNL1        0.0689
      7 N          -9.6409  -20.1828   23.0939 N.3     1  UNL1       -0.2972
      8 C          -9.1451  -18.8328   23.5204 C.3     1  UNL1        0.0726
      9 H          -8.9850  -20.5996   22.4333 H       1  UNL1        0.1233
     10 CL         -5.6455  -14.9311   25.8041 Cl      1  UNL1       -0.0814
     11 C          -6.7779  -15.6521   25.1351 C.ar    1  UNL1        0.0682
     12 C          -6.6606  -16.0620   23.6969 C.ar    1  UNL1        0.0119
     13 C          -7.7930  -16.7831   23.0278 C.ar    1  UNL1       -0.0033
     14 C          -9.0427  -17.0943   23.7969 C.ar    1  UNL1       -0.0206
     15 C          -9.1599  -16.6845   25.2350 C.ar    1  UNL1        0.0080
     16 C          -8.0276  -15.9634   25.9041 C.ar    1  UNL1        0.0679
     17 CL         -8.1449  -15.5536   27.3422 Cl      1  UNL1       -0.0814
@<TRIPOS>BOND
     1    10    11    1
     2    11    12   ar
     3    12    13   ar
     4    13    14   ar
     5     1    14    1
     6     1     2    1
     7     2     3    1
     8     3     4    1
     9     5     4    1
    10     5     6    1
    11     6     7    1
    12     7     8    1
    13    14    15   ar
    14    15    16   ar
    15    16    17    1
    16    16    11   ar
    17     5     1    1
    18     8     1    1
    19     7     9    1
@<TRIPOS>MOLECULE
*****
 17 19 0 0 0
SMALL
GASTEIGER

@<TRIPOS>ATOM
      1 C          -7.5750  -16.0237   24.8335 C.3     1  UNL1        0.0347
      2 C          -8.7102  -16.6426   25.5938 C.3     1  UNL1        0.0054
      3 C          -8.4303  -16.4799   27.0584 C.3     1  UNL1        0.0004
      4 C          -7.1221  -15.7605   27.2033 C.3     1  UNL1        0.0017
      5 C          -6.5935  -15.4785   25.8282 C.3     1  UNL1        0.0208
      6 C          -5.4582  -14.8595   25.0678 C.3     1  UNL1        0.0689
      7 N          -5.7381  -15.0222   23.6031 N.3     1  UNL1       -0.2972
      8 C          -7.0463  -15.7417   23.4583 C.3     1  UNL1        0.0726
      9 H          -4.9937  -15.5661   23.1668 H       1  UNL1        0.1233
     10 CL        -11.5005  -18.2045   20.8543 Cl      1  UNL1       -0.0814
     11 C         -10.5192  -17.6593   21.8491 C.ar    1  UNL1        0.0682
     12 C          -9.1438  -18.2498   21.9468 C.ar    1  UNL1        0.0119
     13 C          -8.1624  -17.7046   22.9416 C.ar    1  UNL1       -0.0033
     14 C          -8.5564  -16.5688   23.8387 C.ar    1  UNL1       -0.0206
     15 C          -9.9318  -15.9783   23.7410 C.ar    1  UNL1        0.0080
     16 C         -10.9132  -16.5235   22.7462 C.ar    1  UNL1        0.0679
     17 CL        -12.2886  -15.9330   22.6486 Cl      1  UNL1       -0.0814
@<TRIPOS>BOND
     1    10    11    1
     2    11    12   ar
     3    12    13   ar
     4    13    14   ar
     5     1    14    1
     6     1     2    1
     7     2     3    1
     8     3     4    1
     9     5     4    1
    10     5     6    1
    11     6     7    1
    12     7     8    1
    13    14    15   ar
    14    15    16   ar
    15    16    17    1
    16    16    11   ar
    17     5     1    1
    18     8     1    1
    19     7     9    1
@<TRIPOS>MOLECULE
*****
 17 19 0 0 0
SMALL
GASTEIGER

@<TRIPOS>ATOM
      1 C          -8.4906  -19.5834   21.3700 C.3     1  UNL1        0.0347
      2 C          -8.0074  -20.0076   22.7252 C.3     1  UNL1        0.0054
      3 C          -9.2075  -20.2204   23.5995 C.3     1  UNL1        0.0004
      4 C         -10.4324  -19.9277   22.7846 C.3     1  UNL1        0.0017
      5 C          -9.9893  -19.5341   21.4067 C.3     1  UNL1        0.0208
      6 C         -10.4725  -19.1099   20.0515 C.3     1  UNL1        0.0689
      7 N          -9.2723  -18.8971   19.1771 N.3     1  UNL1       -0.2972
      8 C          -8.0474  -19.1897   19.9921 C.3     1  UNL1        0.0726
      9 H          -9.2485  -17.9309   18.8512 H       1  UNL1        0.1233
     10 CL         -2.4957  -19.7808   21.2227 Cl      1  UNL1       -0.0814
     11 C          -3.9943  -19.7315   21.2595 C.ar    1  UNL1        0.0682
     12 C          -4.7964  -20.6197   20.3554 C.ar    1  UNL1        0.0119
     13 C          -6.2952  -20.5704   20.3922 C.ar    1  UNL1       -0.0033
     14 C          -6.9918  -19.6327   21.3332 C.ar    1  UNL1       -0.0206
     15 C          -6.1896  -18.7444   22.2374 C.ar    1  UNL1        0.0080
     16 C          -4.6910  -18.7938   22.2006 C.ar    1  UNL1        0.0679
     17 CL         -3.8889  -17.9055   23.1048 Cl      1  UNL1       -0.0814
@<TRIPOS>BOND
     1    10    11    1
     2    11    12   ar
     3    12    13   ar
     4    13    14   ar
     5     1    14    1
     6     1     2    1
     7     2     3    1
     8     3     4    1
     9     5     4    1
    10     5     6    1
    11     6     7    1
    12     7     8    1
    13    14    15   ar
    14    15    16   ar
    15    16    17    1
    16    16    11   ar
    17     5     1    1
    18     8     1    1
    19     7     9    1
@<TRIPOS>MOLECULE
*****
 17 19 0 0 0
SMALL
GASTEIGER

@<TRIPOS>ATOM
      1 C          -9.4845  -18.2910   22.6913 C.3     1  UNL1        0.0347
      2 C          -9.1820  -19.7019   23.1010 C.3     1  UNL1        0.0054
      3 C         -10.2572  -20.1509   24.0456 C.3     1  UNL1        0.0004
      4 C         -11.2242  -19.0174   24.2197 C.3     1  UNL1        0.0017
      5 C         -10.7466  -17.8680   23.3827 C.3     1  UNL1        0.0208
      6 C         -11.0491  -16.4571   22.9730 C.3     1  UNL1        0.0689
      7 N          -9.9738  -16.0080   22.0283 N.3     1  UNL1       -0.2972
      8 C          -9.0068  -17.1415   21.8543 C.3     1  UNL1        0.0726
      9 H          -9.4905  -15.1969   22.4143 H       1  UNL1        0.1233
     10 CL         -4.4360  -19.9828   19.9254 Cl      1  UNL1       -0.0814
     11 C          -5.6980  -19.5599   20.6168 C.ar    1  UNL1        0.0682
     12 C          -7.0240  -19.7563   19.9437 C.ar    1  UNL1        0.0119
     13 C          -8.2861  -19.3333   20.6352 C.ar    1  UNL1       -0.0033
     14 C          -8.2223  -18.7139   21.9998 C.ar    1  UNL1       -0.0206
     15 C          -6.8963  -18.5176   22.6730 C.ar    1  UNL1        0.0080
     16 C          -5.6342  -18.9405   21.9816 C.ar    1  UNL1        0.0679
     17 CL         -4.3082  -18.7441   22.6547 Cl      1  UNL1       -0.0814
@<TRIPOS>BOND
     1    10    11    1
     2    11    12   ar
     3    12    13   ar
     4    13    14   ar
     5     1    14    1
     6     1     2    1
     7     2     3    1
     8     3     4    1
     9     5     4    1
    10     5     6    1
    11     6     7    1
    12     7     8    1
    13    14    15   ar
    14    15    16   ar
    15    16    17    1
    16    16    11   ar
    17     5     1    1
    18     8     1    1
    19     7     9    1
@<TRIPOS>MOLECULE
*****
 17 19 0 0 0
SMALL
GASTEIGER

@<TRIPOS>ATOM
      1 C         -10.7619  -17.1604   22.7490 C.3     1  UNL1        0.0347
      2 C         -10.4405  -17.9135   24.0058 C.3     1  UNL1        0.0054
      3 C         -11.7069  -18.5435   24.5053 C.3     1  UNL1        0.0004
      4 C         -12.8109  -18.1797   23.5572 C.3     1  UNL1        0.0017
      5 C         -12.2268  -17.3248   22.4718 C.3     1  UNL1        0.0208
      6 C         -12.5482  -16.5717   21.2150 C.3     1  UNL1        0.0689
      7 N         -11.2818  -15.9417   20.7155 N.3     1  UNL1       -0.2972
      8 C         -10.1778  -16.3056   21.6636 C.3     1  UNL1        0.0726
      9 H         -11.3893  -14.9279   20.6820 H       1  UNL1        0.1233
     10 CL         -4.9021  -16.5022   23.8579 Cl      1  UNL1       -0.0814
     11 C          -6.3670  -16.6667   23.5807 C.ar    1  UNL1        0.0682
     12 C          -7.3606  -15.7482   24.2279 C.ar    1  UNL1        0.0119
     13 C          -8.8256  -15.9127   23.9507 C.ar    1  UNL1       -0.0033
     14 C          -9.2969  -16.9959   23.0262 C.ar    1  UNL1       -0.0206
     15 C          -8.3032  -17.9144   22.3790 C.ar    1  UNL1        0.0080
     16 C          -6.8384  -17.7499   22.6562 C.ar    1  UNL1        0.0679
     17 CL         -5.8447  -18.6684   22.0090 Cl      1  UNL1       -0.0814
@<TRIPOS>BOND
     1    10    11    1
     2    11    12   ar
     3    12    13   ar
     4    13    14   ar
     5     1    14    1
     6     1     2    1
     7     2     3    1
     8     3     4    1
     9     5     4    1
    10     5     6    1
    11     6     7    1
    12     7     8    1
    13    14    15   ar
    14    15    16   ar
    15    16    17    1
    16    16    11   ar
    17     5     1    1
    18     8     1    1
    19     7     9    1
@<TRIPOS>MOLECULE
*****
 17 19 0 0 0
SMALL
GASTEIGER

@<TRIPOS>ATOM
      1 C          -8.7960  -19.0602   20.9336 C.3     1  UNL1        0.0347
      2 C         -10.0381  -19.5265   20.2338 C.3     1  UNL1        0.0054
      3 C          -9.6398  -20.0634   18.8910 C.3     1  UNL1        0.0004
      4 C          -8.1515  -19.9289   18.7609 C.3     1  UNL1        0.0017
      5 C          -7.6300  -19.3089   20.0233 C.3     1  UNL1        0.0208
      6 C          -6.3878  -18.8427   20.7231 C.3     1  UNL1        0.0689
      7 N          -6.7862  -18.3058   22.0660 N.3     1  UNL1       -0.2972
      8 C          -8.2745  -18.4403   22.1960 C.3     1  UNL1        0.0726
      9 H          -6.5196  -17.3239   22.1391 H       1  UNL1        0.1233
     10 CL        -13.4597  -18.0656   24.5751 Cl      1  UNL1       -0.0814
     11 C         -12.2938  -18.3142   23.6647 C.ar    1  UNL1        0.0682
     12 C         -11.5215  -19.5960   23.7681 C.ar    1  UNL1        0.0119
     13 C         -10.3556  -19.8446   22.8577 C.ar    1  UNL1       -0.0033
     14 C          -9.9619  -18.8115   21.8440 C.ar    1  UNL1       -0.0206
     15 C         -10.7342  -17.5298   21.7406 C.ar    1  UNL1        0.0080
     16 C         -11.9001  -17.2811   22.6509 C.ar    1  UNL1        0.0679
     17 CL        -12.6724  -15.9994   22.5475 Cl      1  UNL1       -0.0814
@<TRIPOS>BOND
     1    10    11    1
     2    11    12   ar
     3    12    13   ar
     4    13    14   ar
     5     1    14    1
     6     1     2    1
     7     2     3    1
     8     3     4    1
     9     5     4    1
    10     5     6    1
    11     6     7    1
    12     7     8    1
    13    14    15   ar
    14    15    16   ar
    15    16    17    1
    16    16    11   ar
    17     5     1    1
    18     8     1    1
    19     7     9    1
@<TRIPOS>MOLECULE
*****
 17 19 0 0 0
SMALL
GASTEIGER

@<TRIPOS>ATOM
      1 C          -6.9586  -16.6318   23.4239 C.3     1  UNL1        0.0347
      2 C          -7.1229  -17.8992   22.6386 C.3     1  UNL1        0.0054
      3 C          -5.7601  -18.4826   22.4098 C.3     1  UNL1        0.0004
      4 C          -4.7535  -17.5758   23.0536 C.3     1  UNL1        0.0017
      5 C          -5.4942  -16.4319   23.6804 C.3     1  UNL1        0.0208
      6 C          -5.3299  -15.1645   24.4656 C.3     1  UNL1        0.0689
      7 N          -6.6927  -14.5809   24.6945 N.3     1  UNL1       -0.2972
      8 C          -7.6993  -15.4878   24.0506 C.3     1  UNL1        0.0726
      9 H          -6.7463  -13.6521   24.2764 H       1  UNL1        0.1233
     10 CL        -12.8160  -17.4310   22.3984 Cl      1  UNL1       -0.0814
     11 C         -11.3517  -17.2312   22.6547 C.ar    1  UNL1        0.0682
     12 C         -10.7300  -17.7676   23.9100 C.ar    1  UNL1        0.0119
     13 C          -9.2656  -17.5678   24.1664 C.ar    1  UNL1       -0.0033
     14 C          -8.4229  -16.8316   23.1674 C.ar    1  UNL1       -0.0206
     15 C          -9.0446  -16.2952   21.9121 C.ar    1  UNL1        0.0080
     16 C         -10.5089  -16.4950   21.6558 C.ar    1  UNL1        0.0679
     17 CL        -11.1306  -15.9586   20.4005 Cl      1  UNL1       -0.0814
@<TRIPOS>BOND
     1    10    11    1
     2    11    12   ar
     3    12    13   ar
     4    13    14   ar
     5     1    14    1
     6     1     2    1
     7     2     3    1
     8     3     4    1
     9     5     4    1
    10     5     6    1
    11     6     7    1
    12     7     8    1
    13    14    15   ar
    14    15    16   ar
    15    16    17    1
    16    16    11   ar
    17     5     1    1
    18     8     1    1
    19     7     9    1
@<TRIPOS>MOLECULE
*****
 17 19 0 0 0
SMALL
GASTEIGER

@<TRIPOS>ATOM
      1 C          -8.7540  -19.6628   21.5396 C.3     1  UNL1        0.0347
      2 C          -8.3913  -19.3717   20.1135 C.3     1  UNL1        0.0054
      3 C          -9.6634  -19.1907   19.3395 C.3     1  UNL1        0.0004
      4 C         -10.8122  -19.3698   20.2872 C.3     1  UNL1        0.0017
      5 C         -10.2501  -19.6616   21.6470 C.3     1  UNL1        0.0208
      6 C         -10.6128  -19.9526   23.0731 C.3     1  UNL1        0.0689
      7 N          -9.3407  -20.1337   23.8472 N.3     1  UNL1       -0.2972
      8 C          -8.1919  -19.9545   22.8994 C.3     1  UNL1        0.0726
      9 H          -9.3123  -21.0692   24.2526 H       1  UNL1        0.1233
     10 CL         -2.7694  -19.6676   21.1103 Cl      1  UNL1       -0.0814
     11 C          -4.2654  -19.6664   21.2176 C.ar    1  UNL1        0.0682
     12 C          -5.0793  -20.5941   20.3650 C.ar    1  UNL1        0.0119
     13 C          -6.5755  -20.5929   20.4724 C.ar    1  UNL1       -0.0033
     14 C          -7.2578  -19.6639   21.4323 C.ar    1  UNL1       -0.0206
     15 C          -6.4439  -18.7362   22.2850 C.ar    1  UNL1        0.0080
     16 C          -4.9478  -18.7375   22.1776 C.ar    1  UNL1        0.0679
     17 CL         -4.1340  -17.8098   23.0303 Cl      1  UNL1       -0.0814
@<TRIPOS>BOND
     1    10    11    1
     2    11    12   ar
     3    12    13   ar
     4    13    14   ar
     5     1    14    1
     6     1     2    1
     7     2     3    1
     8     3     4    1
     9     5     4    1
    10     5     6    1
    11     6     7    1
    12     7     8    1
    13    14    15   ar
    14    15    16   ar
    15    16    17    1
    16    16    11   ar
    17     5     1    1
    18     8     1    1
    19     7     9    1
