@<TRIPOS>MOLECULE
*****
 28 31 0 0 0
SMALL
GASTEIGER

@<TRIPOS>ATOM
      1 C          -7.9574  -19.2650   20.5806 C.3     1  UNL1        0.0343
      2 C          -7.3246  -18.5158   21.7156 C.ar    1  UNL1        0.0167
      3 C          -5.8597  -18.2383   21.8810 C.ar    1  UNL1        0.1178
      4 N          -5.6754  -17.4637   23.1522 N.ar    1  UNL1       -0.1638
      5 N          -7.0262  -17.2624   23.7724 N.ar    1  UNL1       -0.2291
      6 C          -8.0455  -17.9126   22.8846 C.ar    1  UNL1        0.0803
      7 C          -7.3083  -16.5380   25.0553 C.ar    1  UNL1        0.0933
      8 C          -8.5537  -16.8462   25.8325 C.ar    1  UNL1        0.0200
      9 C          -8.8358  -16.1218   27.1153 C.ar    1  UNL1        0.0016
     10 C          -7.8725  -15.0892   27.6210 C.ar    1  UNL1        0.0010
     11 C          -6.6271  -14.7810   26.8438 C.ar    1  UNL1        0.0129
     12 C          -6.3450  -15.5054   25.5610 C.ar    1  UNL1        0.0753
     13 CL         -5.0996  -15.1971   24.7838 Cl      1  UNL1       -0.0807
     14 C          -9.5257  -17.9527   23.1237 C.ar    1  UNL1        0.0175
     15 C         -10.4005  -16.8535   22.5979 C.ar    1  UNL1        0.0024
     16 C         -11.8808  -16.8936   22.8370 C.ar    1  UNL1        0.0114
     17 C         -12.4863  -18.0330   23.6019 C.ar    1  UNL1        0.0577
     18 CL        -13.9666  -18.0731   23.8410 Cl      1  UNL1       -0.0822
     19 C         -11.6115  -19.1323   24.1277 C.ar    1  UNL1        0.0114
     20 C         -10.1313  -19.0922   23.8886 C.ar    1  UNL1        0.0024
     21 C          -4.7705  -18.6613   20.9404 C.ar    1  UNL1        0.1192
     22 C          -3.5753  -17.8431   20.5506 C.ar    1  UNL1        0.0980
     23 N          -2.7514  -18.6528   19.5938 N.ar    1  UNL1       -0.3097
     24 C          -3.4375  -19.9714   19.3921 C.ar    1  UNL1        0.1785
     25 N          -4.6855  -19.9766   20.2244 N.ar    1  UNL1       -0.2223
     26 C          -1.4670  -18.2199   18.9513 C.3     1  UNL1        0.0871
     27 C          -0.2023  -18.1785   19.7567 C.3     1  UNL1        0.0245
     28 C          -1.4472  -17.8284   17.5034 C.3     1  UNL1        0.0245
@<TRIPOS>BOND
     1     1     2    1
     2     2     3   ar
     3     3    21    1
     4    21    22   ar
     5    22    23   ar
     6    23    26    1
     7    26    27    1
     8    26    28    1
     9    23    24   ar
    10    24    25   ar
    11     3     4   ar
    12     4     5   ar
    13     5     7    1
    14     7     8   ar
    15     8     9   ar
    16     9    10   ar
    17    10    11   ar
    18    11    12   ar
    19    12    13    1
    20     5     6   ar
    21     6    14    1
    22    14    15   ar
    23    15    16   ar
    24    16    17   ar
    25    17    18    1
    26    17    19   ar
    27    19    20   ar
    28     6     2   ar
    29    20    14   ar
    30    25    21   ar
    31    12     7   ar
@<TRIPOS>MOLECULE
*****
 28 31 0 0 0
SMALL
GASTEIGER

@<TRIPOS>ATOM
      1 C           1.7781    1.6345   32.2678 C.3     1  UNL1        0.0343
      2 C           2.6938    0.6492   31.6040 C.ar    1  UNL1        0.0167
      3 C           2.4910    0.0282   30.2537 C.ar    1  UNL1        0.1178
      4 N           3.6449   -0.8929   29.9891 N.ar    1  UNL1       -0.1638
      5 N           4.5609   -0.8412   31.1758 N.ar    1  UNL1       -0.2291
      6 C           3.9731    0.1119   32.1739 C.ar    1  UNL1        0.0803
      7 C           5.8402   -1.6079   31.3363 C.ar    1  UNL1        0.0933
      8 C           5.8259   -2.9655   31.9741 C.ar    1  UNL1        0.0200
      9 C           7.1051   -3.7322   32.1345 C.ar    1  UNL1        0.0016
     10 C           8.3985   -3.1414   31.6572 C.ar    1  UNL1        0.0010
     11 C           8.4128   -1.7838   31.0194 C.ar    1  UNL1        0.0129
     12 C           7.1336   -1.0171   30.8590 C.ar    1  UNL1        0.0753
     13 CL          7.1479    0.3405   30.2212 Cl      1  UNL1       -0.0807
     14 C           4.5612    0.4656   33.5076 C.ar    1  UNL1        0.0175
     15 C           4.4911   -0.5135   34.6418 C.ar    1  UNL1        0.0024
     16 C           5.0793   -0.1598   35.9755 C.ar    1  UNL1        0.0114
     17 C           5.7376    1.1732   36.1752 C.ar    1  UNL1        0.0577
     18 CL          6.3258    1.5269   37.5089 Cl      1  UNL1       -0.0822
     19 C           5.8077    2.1523   35.0410 C.ar    1  UNL1        0.0114
     20 C           5.2196    1.7986   33.7072 C.ar    1  UNL1        0.0024
     21 C           1.3369    0.2834   29.3302 C.ar    1  UNL1        0.1192
     22 C           1.3941    1.0382   28.0352 C.ar    1  UNL1        0.0980
     23 N           0.0155    1.0499   27.4442 N.ar    1  UNL1       -0.3097
     24 C          -0.8937    0.3024   28.3740 C.ar    1  UNL1        0.1785
     25 N          -0.0771   -0.1713   29.5396 N.ar    1  UNL1       -0.2223
     26 C          -0.3837    1.6958   26.1506 C.3     1  UNL1        0.0871
     27 C           0.2297    1.2351   24.8617 C.3     1  UNL1        0.0245
     28 C          -1.3963    2.8025   26.1459 C.3     1  UNL1        0.0245
@<TRIPOS>BOND
     1     1     2    1
     2     2     3   ar
     3     3    21    1
     4    21    22   ar
     5    22    23   ar
     6    23    26    1
     7    26    27    1
     8    26    28    1
     9    23    24   ar
    10    24    25   ar
    11     3     4   ar
    12     4     5   ar
    13     5     7    1
    14     7     8   ar
    15     8     9   ar
    16     9    10   ar
    17    10    11   ar
    18    11    12   ar
    19    12    13    1
    20     5     6   ar
    21     6    14    1
    22    14    15   ar
    23    15    16   ar
    24    16    17   ar
    25    17    18    1
    26    17    19   ar
    27    19    20   ar
    28     6     2   ar
    29    20    14   ar
    30    25    21   ar
    31    12     7   ar
@<TRIPOS>MOLECULE
*****
 28 31 0 0 0
SMALL
GASTEIGER

@<TRIPOS>ATOM
      1 C           2.7872    0.7510   24.5612 C.3     1  UNL1        0.0343
      2 C           3.4354   -0.4668   23.9723 C.ar    1  UNL1        0.0167
      3 C           4.2319   -1.4922   24.7236 C.ar    1  UNL1        0.1178
      4 N           4.6896   -2.5321   23.7444 N.ar    1  UNL1       -0.1638
      5 N           4.1761   -2.1495   22.3879 N.ar    1  UNL1       -0.2291
      6 C           3.4009   -0.8731   22.5288 C.ar    1  UNL1        0.0803
      7 C           4.3987   -2.9099   21.1142 C.ar    1  UNL1        0.0933
      8 C           3.6867   -4.2097   20.8825 C.ar    1  UNL1        0.0200
      9 C           3.9093   -4.9701   19.6089 C.ar    1  UNL1        0.0016
     10 C           4.8437   -4.4307   18.5669 C.ar    1  UNL1        0.0010
     11 C           5.5557   -3.1309   18.7985 C.ar    1  UNL1        0.0129
     12 C           5.3331   -2.3705   20.0722 C.ar    1  UNL1        0.0753
     13 CL          6.0450   -1.0707   20.3039 Cl      1  UNL1       -0.0807
     14 C           2.7122   -0.1329   21.4208 C.ar    1  UNL1        0.0175
     15 C           3.2342    1.1994   20.9709 C.ar    1  UNL1        0.0024
     16 C           2.5455    1.9396   19.8629 C.ar    1  UNL1        0.0114
     17 C           1.3347    1.3474   19.2046 C.ar    1  UNL1        0.0577
     18 CL          0.6460    2.0876   18.0966 Cl      1  UNL1       -0.0822
     19 C           0.8127    0.0150   19.6544 C.ar    1  UNL1        0.0114
     20 C           1.5014   -0.7252   20.7625 C.ar    1  UNL1        0.0024
     21 C           4.5199   -1.4797   26.1956 C.ar    1  UNL1        0.1192
     22 C           3.5832   -1.0206   27.2734 C.ar    1  UNL1        0.0980
     23 N           4.2797   -1.1813   28.5922 N.ar    1  UNL1       -0.3097
     24 C           5.6468   -1.7397   28.3294 C.ar    1  UNL1        0.1785
     25 N           5.7953   -1.9242   26.8481 N.ar    1  UNL1       -0.2223
     26 C           3.7092   -0.8429   29.9375 C.3     1  UNL1        0.0871
     27 C           2.2557   -0.4969   30.0703 C.3     1  UNL1        0.0245
     28 C           4.5921   -0.8506   31.1502 C.3     1  UNL1        0.0245
@<TRIPOS>BOND
     1     1     2    1
     2     2     3   ar
     3     3    21    1
     4    21    22   ar
     5    22    23   ar
     6    23    26    1
     7    26    27    1
     8    26    28    1
     9    23    24   ar
    10    24    25   ar
    11     3     4   ar
    12     4     5   ar
    13     5     7    1
    14     7     8   ar
    15     8     9   ar
    16     9    10   ar
    17    10    11   ar
    18    11    12   ar
    19    12    13    1
    20     5     6   ar
    21     6    14    1
    22    14    15   ar
    23    15    16   ar
    24    16    17   ar
    25    17    18    1
    26    17    19   ar
    27    19    20   ar
    28     6     2   ar
    29    20    14   ar
    30    25    21   ar
    31    12     7   ar
@<TRIPOS>MOLECULE
*****
 28 31 0 0 0
SMALL
GASTEIGER

@<TRIPOS>ATOM
      1 C           7.5037   -3.6345   30.5583 C.3     1  UNL1        0.0343
      2 C           6.5164   -2.7974   29.8004 C.ar    1  UNL1        0.0167
      3 C           6.2889   -2.8278   28.3180 C.ar    1  UNL1        0.1178
      4 N           5.2151   -1.8320   27.9934 N.ar    1  UNL1       -0.1638
      5 N           4.7789   -1.1862   29.2751 N.ar    1  UNL1       -0.2291
      6 C           5.5831   -1.7829   30.3919 C.ar    1  UNL1        0.0803
      7 C           3.7237   -0.1293   29.4153 C.ar    1  UNL1        0.0933
      8 C           2.2754   -0.5170   29.4617 C.ar    1  UNL1        0.0200
      9 C           1.2202    0.5398   29.6019 C.ar    1  UNL1        0.0016
     10 C           1.6133    1.9843   29.6957 C.ar    1  UNL1        0.0010
     11 C           3.0616    2.3720   29.6493 C.ar    1  UNL1        0.0129
     12 C           4.1168    1.3152   29.5091 C.ar    1  UNL1        0.0753
     13 CL          5.5651    1.7028   29.4627 Cl      1  UNL1       -0.0807
     14 C           5.4734   -1.4274   31.8450 C.ar    1  UNL1        0.0175
     15 C           6.4242   -0.4368   32.4487 C.ar    1  UNL1        0.0024
     16 C           6.3145   -0.0814   33.9019 C.ar    1  UNL1        0.0114
     17 C           5.2538   -0.7165   34.7513 C.ar    1  UNL1        0.0577
     18 CL          5.1441   -0.3611   36.2044 Cl      1  UNL1       -0.0822
     19 C           4.3029   -1.7072   34.1475 C.ar    1  UNL1        0.0114
     20 C           4.4127   -2.0626   32.6944 C.ar    1  UNL1        0.0024
     21 C           7.0089   -3.7007   27.3333 C.ar    1  UNL1        0.1192
     22 C           6.7994   -5.1737   27.1429 C.ar    1  UNL1        0.0980
     23 N           7.7258   -5.6371   26.0580 N.ar    1  UNL1       -0.3097
     24 C           8.5078   -4.4506   25.5779 C.ar    1  UNL1        0.1785
     25 N           8.0647   -3.2537   26.3661 N.ar    1  UNL1       -0.2223
     26 C           7.8486   -7.0408   25.5435 C.3     1  UNL1        0.0871
     27 C           7.5482   -8.1997   26.4472 C.3     1  UNL1        0.0245
     28 C           8.2717   -7.2856   24.1254 C.3     1  UNL1        0.0245
@<TRIPOS>BOND
     1     1     2    1
     2     2     3   ar
     3     3    21    1
     4    21    22   ar
     5    22    23   ar
     6    23    26    1
     7    26    27    1
     8    26    28    1
     9    23    24   ar
    10    24    25   ar
    11     3     4   ar
    12     4     5   ar
    13     5     7    1
    14     7     8   ar
    15     8     9   ar
    16     9    10   ar
    17    10    11   ar
    18    11    12   ar
    19    12    13    1
    20     5     6   ar
    21     6    14    1
    22    14    15   ar
    23    15    16   ar
    24    16    17   ar
    25    17    18    1
    26    17    19   ar
    27    19    20   ar
    28     6     2   ar
    29    20    14   ar
    30    25    21   ar
    31    12     7   ar
@<TRIPOS>MOLECULE
*****
 28 31 0 0 0
SMALL
GASTEIGER

@<TRIPOS>ATOM
      1 C           8.5059   -3.1646   21.5949 C.3     1  UNL1        0.0343
      2 C           7.0685   -2.9264   21.9514 C.ar    1  UNL1        0.0167
      3 C           6.3152   -3.5895   23.0664 C.ar    1  UNL1        0.1178
      4 N           4.9132   -3.0563   23.0596 N.ar    1  UNL1       -0.1638
      5 N           4.8000   -2.0638   21.9406 N.ar    1  UNL1       -0.2291
      6 C           6.1321   -1.9835   21.2557 C.ar    1  UNL1        0.0803
      7 C           3.5705   -1.2877   21.5714 C.ar    1  UNL1        0.0933
      8 C           3.1459   -0.1145   22.4041 C.ar    1  UNL1        0.0200
      9 C           1.9165    0.6615   22.0349 C.ar    1  UNL1        0.0016
     10 C           1.1118    0.2644   20.8330 C.ar    1  UNL1        0.0010
     11 C           1.5364   -0.9088   20.0003 C.ar    1  UNL1        0.0129
     12 C           2.7658   -1.6848   20.3695 C.ar    1  UNL1        0.0753
     13 CL          3.1904   -2.8580   19.5368 Cl      1  UNL1       -0.0807
     14 C           6.4687   -1.1132   20.0813 C.ar    1  UNL1        0.0175
     15 C           6.9456    0.2918   20.3012 C.ar    1  UNL1        0.0024
     16 C           7.2822    1.1621   19.1268 C.ar    1  UNL1        0.0114
     17 C           7.1419    0.6273   17.7324 C.ar    1  UNL1        0.0577
     18 CL          7.4785    1.4977   16.5580 Cl      1  UNL1       -0.0822
     19 C           6.6650   -0.7777   17.5125 C.ar    1  UNL1        0.0114
     20 C           6.3284   -1.6481   18.6869 C.ar    1  UNL1        0.0024
     21 C           6.8669   -4.6070   24.0204 C.ar    1  UNL1        0.1192
     22 C           6.7312   -4.5798   25.5140 C.ar    1  UNL1        0.0980
     23 N           7.4317   -5.7863   26.0650 N.ar    1  UNL1       -0.3097
     24 C           8.0004   -6.5591   24.9120 C.ar    1  UNL1        0.1785
     25 N           7.6513   -5.8302   23.6483 N.ar    1  UNL1       -0.2223
     26 C           7.5439   -6.1553   27.5146 C.3     1  UNL1        0.0871
     27 C           6.7152   -5.4366   28.5376 C.3     1  UNL1        0.0245
     28 C           8.4848   -7.2429   27.9411 C.3     1  UNL1        0.0245
@<TRIPOS>BOND
     1     1     2    1
     2     2     3   ar
     3     3    21    1
     4    21    22   ar
     5    22    23   ar
     6    23    26    1
     7    26    27    1
     8    26    28    1
     9    23    24   ar
    10    24    25   ar
    11     3     4   ar
    12     4     5   ar
    13     5     7    1
    14     7     8   ar
    15     8     9   ar
    16     9    10   ar
    17    10    11   ar
    18    11    12   ar
    19    12    13    1
    20     5     6   ar
    21     6    14    1
    22    14    15   ar
    23    15    16   ar
    24    16    17   ar
    25    17    18    1
    26    17    19   ar
    27    19    20   ar
    28     6     2   ar
    29    20    14   ar
    30    25    21   ar
    31    12     7   ar
@<TRIPOS>MOLECULE
*****
 28 31 0 0 0
SMALL
GASTEIGER

@<TRIPOS>ATOM
      1 C           7.3925   -5.9213   25.0234 C.3     1  UNL1        0.0343
      2 C           6.9535   -4.5619   25.4810 C.ar    1  UNL1        0.0167
      3 C           6.3600   -3.4895   24.6162 C.ar    1  UNL1        0.1178
      4 N           6.0707   -2.3011   25.4845 N.ar    1  UNL1       -0.1638
      5 N           6.4854   -2.6390   26.8859 N.ar    1  UNL1       -0.2291
      6 C           7.0310   -4.0362   26.8837 C.ar    1  UNL1        0.0803
      7 C           6.3740   -1.7378   28.0799 C.ar    1  UNL1        0.0933
      8 C           5.0459   -1.5389   28.7481 C.ar    1  UNL1        0.0200
      9 C           4.9344   -0.6378   29.9420 C.ar    1  UNL1        0.0016
     10 C           6.1511    0.0645   30.4677 C.ar    1  UNL1        0.0010
     11 C           7.4793   -0.1344   29.7995 C.ar    1  UNL1        0.0129
     12 C           7.5907   -1.0355   28.6056 C.ar    1  UNL1        0.0753
     13 CL          8.9188   -1.2344   27.9374 Cl      1  UNL1       -0.0807
     14 C           7.5610   -4.7776   28.0751 C.ar    1  UNL1        0.0175
     15 C           9.0059   -5.1769   28.1282 C.ar    1  UNL1        0.0024
     16 C           9.5359   -5.9183   29.3195 C.ar    1  UNL1        0.0114
     17 C           8.6210   -6.2606   30.4579 C.ar    1  UNL1        0.0577
     18 CL          9.1511   -7.0020   31.6492 Cl      1  UNL1       -0.0822
     19 C           7.1761   -5.8613   30.4048 C.ar    1  UNL1        0.0114
     20 C           6.6460   -5.1199   29.2134 C.ar    1  UNL1        0.0024
     21 C           6.1013   -3.5882   23.1420 C.ar    1  UNL1        0.1192
     22 C           4.7859   -3.3542   22.4602 C.ar    1  UNL1        0.0980
     23 N           4.9842   -3.5597   20.9876 N.ar    1  UNL1       -0.3097
     24 C           6.4221   -3.9206   20.7594 C.ar    1  UNL1        0.1785
     25 N           7.1125   -3.9382   22.0909 N.ar    1  UNL1       -0.2223
     26 C           3.9296   -3.4274   19.9291 C.3     1  UNL1        0.0871
     27 C           3.1715   -2.1414   19.7823 C.3     1  UNL1        0.0245
     28 C           3.6331   -4.5810   19.0173 C.3     1  UNL1        0.0245
@<TRIPOS>BOND
     1     1     2    1
     2     2     3   ar
     3     3    21    1
     4    21    22   ar
     5    22    23   ar
     6    23    26    1
     7    26    27    1
     8    26    28    1
     9    23    24   ar
    10    24    25   ar
    11     3     4   ar
    12     4     5   ar
    13     5     7    1
    14     7     8   ar
    15     8     9   ar
    16     9    10   ar
    17    10    11   ar
    18    11    12   ar
    19    12    13    1
    20     5     6   ar
    21     6    14    1
    22    14    15   ar
    23    15    16   ar
    24    16    17   ar
    25    17    18    1
    26    17    19   ar
    27    19    20   ar
    28     6     2   ar
    29    20    14   ar
    30    25    21   ar
    31    12     7   ar
@<TRIPOS>MOLECULE
*****
 28 31 0 0 0
SMALL
GASTEIGER

@<TRIPOS>ATOM
      1 C           3.9088   -1.2840   24.4202 C.3     1  UNL1        0.0343
      2 C           3.1496   -0.1461   23.8047 C.ar    1  UNL1        0.0167
      3 C           2.3128    0.8568   24.5423 C.ar    1  UNL1        0.1178
      4 N           1.7399    1.8113   23.5370 N.ar    1  UNL1       -0.1638
      5 N           2.2226    1.3984   22.1781 N.ar    1  UNL1       -0.2291
      6 C           3.0938    0.1886   22.3436 C.ar    1  UNL1        0.0803
      7 C           1.8921    2.0762   20.8814 C.ar    1  UNL1        0.0933
      8 C           2.5924    3.3464   20.4993 C.ar    1  UNL1        0.0200
      9 C           2.2619    4.0243   19.2027 C.ar    1  UNL1        0.0016
     10 C           1.2311    3.4319   18.2882 C.ar    1  UNL1        0.0010
     11 C           0.5307    2.1616   18.6703 C.ar    1  UNL1        0.0129
     12 C           0.8612    1.4838   19.9669 C.ar    1  UNL1        0.0753
     13 CL          0.1609    0.2135   20.3490 Cl      1  UNL1       -0.0807
     14 C           3.7875   -0.5558   21.2415 C.ar    1  UNL1        0.0175
     15 C           3.0903   -1.6871   20.5459 C.ar    1  UNL1        0.0024
     16 C           3.7840   -2.4315   19.4438 C.ar    1  UNL1        0.0114
     17 C           5.1751   -2.0446   19.0373 C.ar    1  UNL1        0.0577
     18 CL          5.8688   -2.7890   17.9352 Cl      1  UNL1       -0.0822
     19 C           5.8724   -0.9132   19.7330 C.ar    1  UNL1        0.0114
     20 C           5.1786   -0.1688   20.8350 C.ar    1  UNL1        0.0024
     21 C           2.0883    0.8980   26.0248 C.ar    1  UNL1        0.1192
     22 C           0.7566    0.9250   26.7145 C.ar    1  UNL1        0.0980
     23 N           1.0014    0.9631   28.1938 N.ar    1  UNL1       -0.3097
     24 C           2.4845    0.9595   28.4185 C.ar    1  UNL1        0.1785
     25 N           3.1562    0.9192   27.0779 N.ar    1  UNL1       -0.2223
     26 C          -0.0519    0.9985   29.2612 C.3     1  UNL1        0.0871
     27 C          -1.3181    0.2122   29.0917 C.3     1  UNL1        0.0245
     28 C           0.1608    1.8201   30.4980 C.3     1  UNL1        0.0245
@<TRIPOS>BOND
     1     1     2    1
     2     2     3   ar
     3     3    21    1
     4    21    22   ar
     5    22    23   ar
     6    23    26    1
     7    26    27    1
     8    26    28    1
     9    23    24   ar
    10    24    25   ar
    11     3     4   ar
    12     4     5   ar
    13     5     7    1
    14     7     8   ar
    15     8     9   ar
    16     9    10   ar
    17    10    11   ar
    18    11    12   ar
    19    12    13    1
    20     5     6   ar
    21     6    14    1
    22    14    15   ar
    23    15    16   ar
    24    16    17   ar
    25    17    18    1
    26    17    19   ar
    27    19    20   ar
    28     6     2   ar
    29    20    14   ar
    30    25    21   ar
    31    12     7   ar
@<TRIPOS>MOLECULE
*****
 28 31 0 0 0
SMALL
GASTEIGER

@<TRIPOS>ATOM
      1 C           1.7398    0.6981   24.6328 C.3     1  UNL1        0.0343
      2 C           0.6157    1.6665   24.4125 C.ar    1  UNL1        0.0167
      3 C           0.0668    2.0927   23.0831 C.ar    1  UNL1        0.1178
      4 N          -1.0450    3.0684   23.3320 N.ar    1  UNL1       -0.1638
      5 N          -1.1832    3.2452   24.8151 N.ar    1  UNL1       -0.2291
      6 C          -0.1569    2.3788   25.4829 C.ar    1  UNL1        0.0803
      7 C          -2.1740    4.1327   25.5087 C.ar    1  UNL1        0.0933
      8 C          -3.5289    3.6025   25.8737 C.ar    1  UNL1        0.0200
      9 C          -4.5196    4.4899   26.5672 C.ar    1  UNL1        0.0016
     10 C          -4.1554    5.9074   26.8957 C.ar    1  UNL1        0.0010
     11 C          -2.8005    6.4376   26.5307 C.ar    1  UNL1        0.0129
     12 C          -1.8098    5.5502   25.8372 C.ar    1  UNL1        0.0753
     13 CL         -0.4549    6.0803   25.4722 Cl      1  UNL1       -0.0807
     14 C           0.0590    2.2477   26.9615 C.ar    1  UNL1        0.0175
     15 C           0.8689    3.2750   27.6953 C.ar    1  UNL1        0.0024
     16 C           1.0848    3.1439   29.1738 C.ar    1  UNL1        0.0114
     17 C           0.4907    1.9854   29.9187 C.ar    1  UNL1        0.0577
     18 CL          0.7066    1.8543   31.3972 Cl      1  UNL1       -0.0822
     19 C          -0.3193    0.9580   29.1849 C.ar    1  UNL1        0.0114
     20 C          -0.5351    1.0891   27.7063 C.ar    1  UNL1        0.0024
     21 C           0.5457    1.6253   21.7407 C.ar    1  UNL1        0.1192
     22 C           1.7873    2.0877   21.0375 C.ar    1  UNL1        0.0980
     23 N           1.8760    1.3616   19.7279 N.ar    1  UNL1       -0.3097
     24 C           0.6892    0.4504   19.6219 C.ar    1  UNL1        0.1785
     25 N          -0.1330    0.6133   20.8659 N.ar    1  UNL1       -0.2223
     26 C           2.9609    1.5190   18.7042 C.3     1  UNL1        0.0871
     27 C           3.4186    0.3331   17.9080 C.3     1  UNL1        0.0245
     28 C           3.5883    2.8624   18.4767 C.3     1  UNL1        0.0245
@<TRIPOS>BOND
     1     1     2    1
     2     2     3   ar
     3     3    21    1
     4    21    22   ar
     5    22    23   ar
     6    23    26    1
     7    26    27    1
     8    26    28    1
     9    23    24   ar
    10    24    25   ar
    11     3     4   ar
    12     4     5   ar
    13     5     7    1
    14     7     8   ar
    15     8     9   ar
    16     9    10   ar
    17    10    11   ar
    18    11    12   ar
    19    12    13    1
    20     5     6   ar
    21     6    14    1
    22    14    15   ar
    23    15    16   ar
    24    16    17   ar
    25    17    18    1
    26    17    19   ar
    27    19    20   ar
    28     6     2   ar
    29    20    14   ar
    30    25    21   ar
    31    12     7   ar
@<TRIPOS>MOLECULE
*****
 28 31 0 0 0
SMALL
GASTEIGER

@<TRIPOS>ATOM
      1 C           0.1507    0.3870   20.7161 C.3     1  UNL1        0.0343
      2 C           1.2267    0.9910   19.8633 C.ar    1  UNL1        0.0167
      3 C           1.0665    2.1623   18.9399 C.ar    1  UNL1        0.1178
      4 N           2.3927    2.4249   18.2901 N.ar    1  UNL1       -0.1638
      5 N           3.3725    1.4161   18.8119 N.ar    1  UNL1       -0.2291
      6 C           2.6519    0.5299   19.7842 C.ar    1  UNL1        0.0803
      7 C           4.8190    1.3118   18.4287 C.ar    1  UNL1        0.0933
      8 C           5.8390    2.1772   19.1075 C.ar    1  UNL1        0.0200
      9 C           7.2854    2.0730   18.7243 C.ar    1  UNL1        0.0016
     10 C           7.7119    1.1033   17.6623 C.ar    1  UNL1        0.0010
     11 C           6.6920    0.2379   16.9835 C.ar    1  UNL1        0.0129
     12 C           5.2455    0.3422   17.3667 C.ar    1  UNL1        0.0753
     13 CL          4.2255   -0.5232   16.6879 Cl      1  UNL1       -0.0807
     14 C           3.2512   -0.6161   20.5440 C.ar    1  UNL1        0.0175
     15 C           3.5886   -0.4582   21.9970 C.ar    1  UNL1        0.0024
     16 C           4.1879   -1.6042   22.7568 C.ar    1  UNL1        0.0114
     17 C           4.4498   -2.9084   22.0636 C.ar    1  UNL1        0.0577
     18 CL          5.0491   -4.0545   22.8234 Cl      1  UNL1       -0.0822
     19 C           4.1123   -3.0664   20.6106 C.ar    1  UNL1        0.0114
     20 C           3.5131   -1.9204   19.8508 C.ar    1  UNL1        0.0024
     21 C          -0.1978    2.9350   18.7071 C.ar    1  UNL1        0.1192
     22 C          -1.1868    3.3447   19.7579 C.ar    1  UNL1        0.0980
     23 N          -2.2954    4.0966   19.0829 N.ar    1  UNL1       -0.3097
     24 C          -1.9915    4.1517   17.6151 C.ar    1  UNL1        0.1785
     25 N          -0.6951    3.4338   17.3828 N.ar    1  UNL1       -0.2223
     26 C          -3.4969    4.6894   19.7574 C.3     1  UNL1        0.0871
     27 C          -4.2136    5.8483   19.1302 C.3     1  UNL1        0.0245
     28 C          -3.9818    4.1234   21.0592 C.3     1  UNL1        0.0245
@<TRIPOS>BOND
     1     1     2    1
     2     2     3   ar
     3     3    21    1
     4    21    22   ar
     5    22    23   ar
     6    23    26    1
     7    26    27    1
     8    26    28    1
     9    23    24   ar
    10    24    25   ar
    11     3     4   ar
    12     4     5   ar
    13     5     7    1
    14     7     8   ar
    15     8     9   ar
    16     9    10   ar
    17    10    11   ar
    18    11    12   ar
    19    12    13    1
    20     5     6   ar
    21     6    14    1
    22    14    15   ar
    23    15    16   ar
    24    16    17   ar
    25    17    18    1
    26    17    19   ar
    27    19    20   ar
    28     6     2   ar
    29    20    14   ar
    30    25    21   ar
    31    12     7   ar
