@<TRIPOS>MOLECULE
*****
 26 30 0 0 0
SMALL
GASTEIGER

@<TRIPOS>ATOM
      1 C          -6.6363  -18.7540   21.7043 C.2     1  UNL1        0.3180
      2 N          -7.2048  -19.5267   20.5512 N.2     1  UNL1       -0.0390
      3 C          -8.6392  -19.1209   20.3835 C.2     1  UNL1        0.2637
      4 C          -9.6967  -19.5511   19.4108 C.2     1  UNL1        0.2821
      5 N         -11.0724  -18.9579   19.4875 N.2     1  UNL1       -0.0268
      6 C         -11.3903  -17.9345   20.5370 C.2     1  UNL1        0.3760
      7 N         -12.6470  -17.1797   20.8547 N.2     1  UNL1       -0.0306
      8 C         -12.3660  -16.2830   22.0239 C.2     1  UNL1        0.2361
      9 C         -10.9357  -16.4836   22.4287 C.2     1  UNL1        0.0583
     10 C         -10.3326  -17.5042   21.5097 C.2     1  UNL1        0.1203
     11 C          -8.9570  -18.0975   21.4330 C.3     1  UNL1        0.2596
     12 N          -7.7192  -17.8707   22.2493 N.pl3   1  UNL1       -0.1895
     13 C          -7.5874  -16.9264   23.4073 C.3     1  UNL1        0.1603
     14 C          -6.6567  -15.7527   23.4864 C.3     1  UNL1        0.0466
     15 C          -6.8573  -15.0909   24.8174 C.3     1  UNL1        0.0041
     16 C          -7.6331  -15.1545   26.0997 C.3     1  UNL1        0.0003
     17 C          -8.5639  -16.3281   26.0206 C.3     1  UNL1        0.0040
     18 C          -8.3633  -16.9900   24.6895 C.3     1  UNL1        0.0428
     19 C          -7.3085  -16.2253   23.9459 C.3     1  UNL1        0.0041
     20 C          -5.2315  -18.8481   22.2216 C.3     1  UNL1        0.2079
     21 N          -4.2261  -19.7044   21.5103 N.3     1  UNL1       -0.1711
     22 H          -3.9805  -20.4616   22.1481 H       1  UNL1        0.1491
     23 C          -1.6471  -18.5080   20.5524 C.3     1  UNL1        0.1957
     24 S          -2.9366  -19.1061   21.0313 S.O2    1  UNL1        0.0431
     25 O          -3.6995  -18.0163   20.3384 O.2     1  UNL1       -0.1574
     26 O          -2.1736  -20.1961   21.7243 O.2     1  UNL1       -0.1574
@<TRIPOS>BOND
     1    23    24    1
     2    24    25    2
     3    24    26    2
     4    24    21    1
     5    21    20    1
     6    20     1    1
     7     1     2    2
     8     2     3    1
     9     3     4    2
    10     4     5    1
    11     5     6    2
    12     6     7    1
    13     7     8    2
    14     8     9    1
    15     9    10    2
    16    10    11    1
    17    11    12    1
    18    13    12    1
    19    13    14    1
    20    15    14    1
    21    15    16    1
    22    16    17    1
    23    18    17    1
    24    18    19    1
    25    12     1    1
    26    18    13    1
    27    11     3    1
    28    19    15    1
    29    10     6    1
    30    21    22    1
@<TRIPOS>MOLECULE
*****
 26 30 0 0 0
SMALL
GASTEIGER

@<TRIPOS>ATOM
      1 C          -8.2713  -19.2510   20.6918 C.2     1  UNL1        0.3180
      2 N          -7.3732  -20.0777   19.8201 N.2     1  UNL1       -0.0390
      3 C          -5.9650  -19.9013   20.3059 C.2     1  UNL1        0.2637
      4 C          -4.6611  -20.4718   19.8325 C.2     1  UNL1        0.2821
      5 N          -3.3849  -20.1065   20.5311 N.2     1  UNL1       -0.0268
      6 C          -3.4127  -19.1707   21.7031 C.2     1  UNL1        0.3760
      7 N          -2.3243  -18.6327   22.5839 N.2     1  UNL1       -0.0306
      8 C          -2.9557  -17.7296   23.6016 C.2     1  UNL1        0.2361
      9 C          -4.4343  -17.7095   23.3498 C.2     1  UNL1        0.0583
     10 C          -4.7168  -18.6002   22.1764 C.2     1  UNL1        0.1203
     11 C          -5.9929  -18.9655   21.4778 C.3     1  UNL1        0.2596
     12 N          -7.4182  -18.5636   21.7163 N.pl3   1  UNL1       -0.1895
     13 C          -7.9051  -17.6370   22.7907 C.3     1  UNL1        0.1603
     14 C          -8.9354  -17.9588   23.8324 C.3     1  UNL1        0.0466
     15 C          -9.1141  -16.7466   24.6975 C.3     1  UNL1        0.0041
     16 C          -8.6561  -15.3355   24.9190 C.3     1  UNL1        0.0003
     17 C          -7.6259  -15.0137   23.8774 C.3     1  UNL1        0.0040
     18 C          -7.4471  -16.2259   23.0122 C.3     1  UNL1        0.0428
     19 C          -8.3669  -17.2969   23.5191 C.3     1  UNL1        0.0041
     20 C          -9.7609  -19.1325   20.5617 C.3     1  UNL1        0.2079
     21 N         -10.3702  -17.8619   20.0476 N.3     1  UNL1       -0.1711
     22 H          -9.6020  -17.2836   19.7073 H       1  UNL1        0.1491
     23 C         -12.0088  -16.1374   21.8755 C.3     1  UNL1        0.1957
     24 S         -11.1895  -16.9996   20.9616 S.O2    1  UNL1        0.0431
     25 O         -10.2152  -15.8747   20.7738 O.2     1  UNL1       -0.1574
     26 O         -12.1639  -18.1245   21.1493 O.2     1  UNL1       -0.1574
@<TRIPOS>BOND
     1    23    24    1
     2    24    25    2
     3    24    26    2
     4    24    21    1
     5    21    20    1
     6    20     1    1
     7     1     2    2
     8     2     3    1
     9     3     4    2
    10     4     5    1
    11     5     6    2
    12     6     7    1
    13     7     8    2
    14     8     9    1
    15     9    10    2
    16    10    11    1
    17    11    12    1
    18    13    12    1
    19    13    14    1
    20    15    14    1
    21    15    16    1
    22    16    17    1
    23    18    17    1
    24    18    19    1
    25    12     1    1
    26    18    13    1
    27    11     3    1
    28    19    15    1
    29    10     6    1
    30    21    22    1
@<TRIPOS>MOLECULE
*****
 26 30 0 0 0
SMALL
GASTEIGER

@<TRIPOS>ATOM
      1 C          -7.3108  -17.8943   22.2091 C.2     1  UNL1        0.3180
      2 N          -5.9060  -17.4297   22.4549 N.2     1  UNL1       -0.0390
      3 C          -5.8880  -16.6722   23.7495 C.2     1  UNL1        0.2637
      4 C          -4.7827  -15.9852   24.4951 C.2     1  UNL1        0.2821
      5 N          -5.0711  -15.2947   25.7952 N.2     1  UNL1       -0.0268
      6 C          -6.4649  -15.2912   26.3494 C.2     1  UNL1        0.3760
      7 N          -7.0470  -14.6978   27.5981 N.2     1  UNL1       -0.0306
      8 C          -8.5121  -15.0180   27.6240 C.2     1  UNL1        0.2361
      9 C          -8.8356  -15.8094   26.3915 C.2     1  UNL1        0.0583
     10 C          -7.5703  -15.9782   25.6037 C.2     1  UNL1        0.1203
     11 C          -7.2819  -16.6687   24.3037 C.3     1  UNL1        0.2596
     12 N          -8.1612  -17.4240   23.3517 N.pl3   1  UNL1       -0.1895
     13 C          -9.6325  -17.6664   23.5139 C.3     1  UNL1        0.1603
     14 C         -10.2638  -18.6932   24.4069 C.3     1  UNL1        0.0466
     15 C         -11.7523  -18.5860   24.2564 C.3     1  UNL1        0.0041
     16 C         -12.8508  -17.8442   23.5541 C.3     1  UNL1        0.0003
     17 C         -12.2196  -16.8175   22.6612 C.3     1  UNL1        0.0040
     18 C         -10.7310  -16.9247   22.8116 C.3     1  UNL1        0.0428
     19 C         -10.4422  -18.0177   23.7975 C.3     1  UNL1        0.0041
     20 C          -7.7825  -18.6897   21.0280 C.3     1  UNL1        0.2079
     21 N          -6.8688  -18.9101   19.8590 N.3     1  UNL1       -0.1711
     22 H          -7.4112  -19.4040   19.1503 H       1  UNL1        0.1491
     23 C          -4.3153  -20.4432   20.2195 C.3     1  UNL1        0.1957
     24 S          -5.5920  -19.6767   20.0393 S.O2    1  UNL1        0.0431
     25 O          -6.3691  -20.8475   20.5641 O.2     1  UNL1       -0.1574
     26 O          -4.8150  -18.5058   19.5144 O.2     1  UNL1       -0.1574
@<TRIPOS>BOND
     1    23    24    1
     2    24    25    2
     3    24    26    2
     4    24    21    1
     5    21    20    1
     6    20     1    1
     7     1     2    2
     8     2     3    1
     9     3     4    2
    10     4     5    1
    11     5     6    2
    12     6     7    1
    13     7     8    2
    14     8     9    1
    15     9    10    2
    16    10    11    1
    17    11    12    1
    18    13    12    1
    19    13    14    1
    20    15    14    1
    21    15    16    1
    22    16    17    1
    23    18    17    1
    24    18    19    1
    25    12     1    1
    26    18    13    1
    27    11     3    1
    28    19    15    1
    29    10     6    1
    30    21    22    1
@<TRIPOS>MOLECULE
*****
 26 30 0 0 0
SMALL
GASTEIGER

@<TRIPOS>ATOM
      1 C          -9.5620  -17.8164   22.3096 C.2     1  UNL1        0.3180
      2 N          -9.3240  -18.7066   21.1260 N.2     1  UNL1       -0.0390
      3 C          -7.8536  -18.9938   21.0502 C.2     1  UNL1        0.2637
      4 C          -7.0388  -19.8121   20.0930 C.2     1  UNL1        0.2821
      5 N          -5.5533  -19.9178   20.2726 N.2     1  UNL1       -0.0268
      6 C          -4.8827  -19.2052   21.4094 C.2     1  UNL1        0.3760
      7 N          -3.4470  -19.1249   21.8364 N.2     1  UNL1       -0.0306
      8 C          -3.3746  -18.2569   23.0576 C.2     1  UNL1        0.2361
      9 C          -4.7655  -17.8007   23.3853 C.2     1  UNL1        0.0583
     10 C          -5.6976  -18.3869   22.3667 C.2     1  UNL1        0.1203
     11 C          -7.1830  -18.2811   22.1871 C.3     1  UNL1        0.2596
     12 N          -8.2389  -17.5535   22.9654 N.pl3   1  UNL1       -0.1895
     13 C          -8.0115  -16.7109   24.1854 C.3     1  UNL1        0.1603
     14 C          -7.2676  -15.4091   24.2317 C.3     1  UNL1        0.0466
     15 C          -7.2844  -14.9159   25.6481 C.3     1  UNL1        0.0041
     16 C          -7.7610  -15.2270   27.0359 C.3     1  UNL1        0.0003
     17 C          -8.5049  -16.5287   26.9896 C.3     1  UNL1        0.0040
     18 C          -8.4881  -17.0221   25.5732 C.3     1  UNL1        0.0428
     19 C          -7.7338  -16.0253   24.7440 C.3     1  UNL1        0.0041
     20 C         -10.8901  -17.2830   22.7586 C.3     1  UNL1        0.2079
     21 N         -11.4519  -16.0428   22.1289 N.3     1  UNL1       -0.1711
     22 H         -12.4079  -15.9460   22.4711 H       1  UNL1        0.1491
     23 C         -11.5730  -15.8007   19.1411 C.3     1  UNL1        0.1957
     24 S         -11.5124  -15.9217   20.6349 S.O2    1  UNL1        0.0431
     25 O         -10.1886  -15.2165   20.6385 O.2     1  UNL1       -0.1574
     26 O         -12.8364  -16.6270   20.6315 O.2     1  UNL1       -0.1574
@<TRIPOS>BOND
     1    23    24    1
     2    24    25    2
     3    24    26    2
     4    24    21    1
     5    21    20    1
     6    20     1    1
     7     1     2    2
     8     2     3    1
     9     3     4    2
    10     4     5    1
    11     5     6    2
    12     6     7    1
    13     7     8    2
    14     8     9    1
    15     9    10    2
    16    10    11    1
    17    11    12    1
    18    13    12    1
    19    13    14    1
    20    15    14    1
    21    15    16    1
    22    16    17    1
    23    18    17    1
    24    18    19    1
    25    12     1    1
    26    18    13    1
    27    11     3    1
    28    19    15    1
    29    10     6    1
    30    21    22    1
@<TRIPOS>MOLECULE
*****
 26 30 0 0 0
SMALL
GASTEIGER

@<TRIPOS>ATOM
      1 C          -6.2646  -16.0180   23.6807 C.2     1  UNL1        0.3180
      2 N          -4.7651  -16.0459   23.6548 N.2     1  UNL1       -0.0390
      3 C          -4.3375  -17.2431   22.8585 C.2     1  UNL1        0.2637
      4 C          -2.9829  -17.7768   22.4978 C.2     1  UNL1        0.2821
      5 N          -2.8635  -19.0226   21.6708 N.2     1  UNL1       -0.0268
      6 C          -4.0988  -19.7346   21.2047 C.2     1  UNL1        0.3760
      7 N          -4.2928  -20.9746   20.3833 N.2     1  UNL1       -0.0306
      8 C          -5.7674  -21.2071   20.2364 C.2     1  UNL1        0.2361
      9 C          -6.4846  -20.1109   20.9671 C.2     1  UNL1        0.0583
     10 C          -5.4533  -19.2008   21.5656 C.2     1  UNL1        0.1203
     11 C          -5.5727  -17.9551   22.3925 C.3     1  UNL1        0.2596
     12 N          -6.7638  -17.1979   22.9006 N.pl3   1  UNL1       -0.1895
     13 C          -8.2015  -17.5576   22.6693 C.3     1  UNL1        0.1603
     14 C          -9.1833  -16.7795   21.8441 C.3     1  UNL1        0.0466
     15 C         -10.4983  -17.4995   21.8873 C.3     1  UNL1        0.0041
     16 C         -11.2068  -18.7004   22.4404 C.3     1  UNL1        0.0003
     17 C         -10.2251  -19.4785   23.2655 C.3     1  UNL1        0.0040
     18 C          -8.9099  -18.7585   23.2224 C.3     1  UNL1        0.0428
     19 C          -9.0788  -17.5354   22.3706 C.3     1  UNL1        0.0041
     20 C          -7.1156  -14.9906   24.3665 C.3     1  UNL1        0.2079
     21 N          -7.0772  -14.8609   25.8604 N.3     1  UNL1       -0.1711
     22 H          -6.0969  -14.9196   26.1360 H       1  UNL1        0.1491
     23 C          -8.5772  -16.8136   27.5743 C.3     1  UNL1        0.1957
     24 S          -7.8272  -15.8373   26.7174 S.O2    1  UNL1        0.0431
     25 O          -6.7050  -15.8258   27.7126 O.2     1  UNL1       -0.1574
     26 O          -8.9495  -15.8488   25.7221 O.2     1  UNL1       -0.1574
@<TRIPOS>BOND
     1    23    24    1
     2    24    25    2
     3    24    26    2
     4    24    21    1
     5    21    20    1
     6    20     1    1
     7     1     2    2
     8     2     3    1
     9     3     4    2
    10     4     5    1
    11     5     6    2
    12     6     7    1
    13     7     8    2
    14     8     9    1
    15     9    10    2
    16    10    11    1
    17    11    12    1
    18    13    12    1
    19    13    14    1
    20    15    14    1
    21    15    16    1
    22    16    17    1
    23    18    17    1
    24    18    19    1
    25    12     1    1
    26    18    13    1
    27    11     3    1
    28    19    15    1
    29    10     6    1
    30    21    22    1
@<TRIPOS>MOLECULE
*****
 26 30 0 0 0
SMALL
GASTEIGER

@<TRIPOS>ATOM
      1 C          -6.3059  -16.8810   23.5083 C.2     1  UNL1        0.3180
      2 N          -7.3961  -16.0209   24.0756 N.2     1  UNL1       -0.0390
      3 C          -8.6938  -16.4493   23.4570 C.2     1  UNL1        0.2637
      4 C         -10.1005  -15.9604   23.6357 C.2     1  UNL1        0.2821
      5 N         -11.2192  -16.5964   22.8649 N.2     1  UNL1       -0.0268
      6 C         -10.9310  -17.7213   21.9154 C.2     1  UNL1        0.3760
      7 N         -11.8218  -18.5371   21.0261 N.2     1  UNL1       -0.0306
      8 C         -10.9655  -19.5302   20.2977 C.2     1  UNL1        0.2361
      9 C          -9.5455  -19.3282   20.7369 C.2     1  UNL1        0.0583
     10 C          -9.5242  -18.2102   21.7367 C.2     1  UNL1        0.1203
     11 C          -8.4056  -17.5742   22.5075 C.3     1  UNL1        0.2596
     12 N          -6.9298  -17.8410   22.5393 N.pl3   1  UNL1       -0.1895
     13 C          -6.2052  -18.8846   21.7419 C.3     1  UNL1        0.1603
     14 C          -6.2838  -20.3677   21.9529 C.3     1  UNL1        0.0466
     15 C          -5.4019  -21.0280   20.9350 C.3     1  UNL1        0.0041
     16 C          -4.4715  -20.7718   19.7866 C.3     1  UNL1        0.0003
     17 C          -4.3930  -19.2888   19.5756 C.3     1  UNL1        0.0040
     18 C          -5.2748  -18.6284   20.5935 C.3     1  UNL1        0.0428
     19 C          -5.8984  -19.7033   21.4337 C.3     1  UNL1        0.0041
     20 C          -4.8479  -16.7960   23.8502 C.3     1  UNL1        0.2079
     21 N          -3.8810  -16.2019   22.8694 N.3     1  UNL1       -0.1711
     22 H          -4.4320  -15.8653   22.0797 H       1  UNL1        0.1491
     23 C          -1.6745  -17.8858   21.7310 C.3     1  UNL1        0.1957
     24 S          -2.7777  -17.0438   22.3001 S.O2    1  UNL1        0.0431
     25 O          -2.4980  -15.9846   21.2755 O.2     1  UNL1       -0.1574
     26 O          -3.0574  -18.1031   23.3248 O.2     1  UNL1       -0.1574
@<TRIPOS>BOND
     1    23    24    1
     2    24    25    2
     3    24    26    2
     4    24    21    1
     5    21    20    1
     6    20     1    1
     7     1     2    2
     8     2     3    1
     9     3     4    2
    10     4     5    1
    11     5     6    2
    12     6     7    1
    13     7     8    2
    14     8     9    1
    15     9    10    2
    16    10    11    1
    17    11    12    1
    18    13    12    1
    19    13    14    1
    20    15    14    1
    21    15    16    1
    22    16    17    1
    23    18    17    1
    24    18    19    1
    25    12     1    1
    26    18    13    1
    27    11     3    1
    28    19    15    1
    29    10     6    1
    30    21    22    1
@<TRIPOS>MOLECULE
*****
 26 30 0 0 0
SMALL
GASTEIGER

@<TRIPOS>ATOM
      1 C          -7.3148  -16.8073   23.2562 C.2     1  UNL1        0.3180
      2 N          -5.9344  -16.4202   23.6973 N.2     1  UNL1       -0.0390
      3 C          -4.9587  -17.3450   23.0318 C.2     1  UNL1        0.2637
      4 C          -3.4628  -17.4380   23.0918 C.2     1  UNL1        0.2821
      5 N          -2.7443  -18.4897   22.2994 N.2     1  UNL1       -0.0268
      6 C          -3.5218  -19.4483   21.4470 C.2     1  UNL1        0.3760
      7 N          -3.0919  -20.5809   20.5625 N.2     1  UNL1       -0.0306
      8 C          -4.3221  -21.1878   19.9558 C.2     1  UNL1        0.2361
      9 C          -5.5123  -20.4304   20.4653 C.2     1  UNL1        0.0583
     10 C          -5.0177  -19.3553   21.3870 C.2     1  UNL1        0.1203
     11 C          -5.7361  -18.3036   22.1794 C.3     1  UNL1        0.2596
     12 N          -7.1923  -17.9713   22.3181 N.pl3   1  UNL1       -0.1895
     13 C          -8.3267  -18.6788   21.6381 C.3     1  UNL1        0.1603
     14 C          -8.5271  -18.8030   20.1567 C.3     1  UNL1        0.0466
     15 C          -9.7842  -19.5872   19.9231 C.3     1  UNL1        0.0041
     16 C         -10.9175  -20.2948   20.6051 C.3     1  UNL1        0.0003
     17 C         -10.7172  -20.1706   22.0864 C.3     1  UNL1        0.0040
     18 C          -9.4601  -19.3863   22.3200 C.3     1  UNL1        0.0428
     19 C          -8.8834  -19.0258   20.9830 C.3     1  UNL1        0.0041
     20 C          -8.5932  -16.1465   23.6790 C.3     1  UNL1        0.2079
     21 N          -9.3996  -15.3668   22.6831 N.3     1  UNL1       -0.1711
     22 H          -9.7298  -14.5292   23.1626 H       1  UNL1        0.1491
     23 C         -11.7942  -16.6205   21.3815 C.3     1  UNL1        0.1957
     24 S         -10.5969  -15.9936   22.0322 S.O2    1  UNL1        0.0431
     25 O         -10.1335  -15.4922   20.6967 O.2     1  UNL1       -0.1574
     26 O         -11.0603  -16.4951   23.3679 O.2     1  UNL1       -0.1574
@<TRIPOS>BOND
     1    23    24    1
     2    24    25    2
     3    24    26    2
     4    24    21    1
     5    21    20    1
     6    20     1    1
     7     1     2    2
     8     2     3    1
     9     3     4    2
    10     4     5    1
    11     5     6    2
    12     6     7    1
    13     7     8    2
    14     8     9    1
    15     9    10    2
    16    10    11    1
    17    11    12    1
    18    13    12    1
    19    13    14    1
    20    15    14    1
    21    15    16    1
    22    16    17    1
    23    18    17    1
    24    18    19    1
    25    12     1    1
    26    18    13    1
    27    11     3    1
    28    19    15    1
    29    10     6    1
    30    21    22    1
@<TRIPOS>MOLECULE
*****
 26 30 0 0 0
SMALL
GASTEIGER

@<TRIPOS>ATOM
      1 C          -9.8032  -18.6451   22.8273 C.2     1  UNL1        0.3180
      2 N         -10.3909  -17.5991   23.7275 N.2     1  UNL1       -0.0390
      3 C          -9.2756  -16.7138   24.1994 C.2     1  UNL1        0.2637
      4 C          -9.2579  -15.5180   25.1046 C.2     1  UNL1        0.2821
      5 N          -7.9632  -14.8209   25.4013 N.2     1  UNL1       -0.0268
      6 C          -6.6863  -15.3198   24.7926 C.2     1  UNL1        0.3760
      7 N          -5.2688  -14.8415   24.9010 N.2     1  UNL1       -0.0306
      8 C          -4.4104  -15.7418   24.0628 C.2     1  UNL1        0.2361
      9 C          -5.2974  -16.7765   23.4363 C.2     1  UNL1        0.0583
     10 C          -6.7040  -16.5158   23.8874 C.2     1  UNL1        0.1203
     11 C          -7.9987  -17.2128   23.5908 C.3     1  UNL1        0.2596
     12 N          -8.3247  -18.4063   22.7427 N.pl3   1  UNL1       -0.1895
     13 C          -7.3444  -19.2185   21.9494 C.3     1  UNL1        0.1603
     14 C          -6.8840  -20.6087   22.2745 C.3     1  UNL1        0.0466
     15 C          -5.9075  -21.0325   21.2178 C.3     1  UNL1        0.0041
     16 C          -5.2154  -20.5972   19.9602 C.3     1  UNL1        0.0003
     17 C          -5.6758  -19.2071   19.6351 C.3     1  UNL1        0.0040
     18 C          -6.6524  -18.7832   20.6918 C.3     1  UNL1        0.0428
     19 C          -6.7956  -19.9114   21.6700 C.3     1  UNL1        0.0041
     20 C         -10.5609  -19.7379   22.1334 C.3     1  UNL1        0.2079
     21 N         -11.1676  -19.4900   20.7841 N.3     1  UNL1       -0.1711
     22 H         -10.6072  -20.0104   20.1092 H       1  UNL1        0.1491
     23 C         -11.4032  -16.6884   19.7374 C.3     1  UNL1        0.1957
     24 S         -11.2855  -18.0892   20.2608 S.O2    1  UNL1        0.0431
     25 O         -12.5936  -17.9314   20.9775 O.2     1  UNL1       -0.1574
     26 O          -9.9772  -18.2470   19.5440 O.2     1  UNL1       -0.1574
@<TRIPOS>BOND
     1    23    24    1
     2    24    25    2
     3    24    26    2
     4    24    21    1
     5    21    20    1
     6    20     1    1
     7     1     2    2
     8     2     3    1
     9     3     4    2
    10     4     5    1
    11     5     6    2
    12     6     7    1
    13     7     8    2
    14     8     9    1
    15     9    10    2
    16    10    11    1
    17    11    12    1
    18    13    12    1
    19    13    14    1
    20    15    14    1
    21    15    16    1
    22    16    17    1
    23    18    17    1
    24    18    19    1
    25    12     1    1
    26    18    13    1
    27    11     3    1
    28    19    15    1
    29    10     6    1
    30    21    22    1
@<TRIPOS>MOLECULE
*****
 26 30 0 0 0
SMALL
GASTEIGER

@<TRIPOS>ATOM
      1 C          -7.6159  -16.5962   22.9217 C.2     1  UNL1        0.3180
      2 N          -6.2469  -17.2077   22.8776 N.2     1  UNL1       -0.0390
      3 C          -6.2691  -18.3222   21.8739 C.2     1  UNL1        0.2637
      4 C          -5.2090  -19.2766   21.4102 C.2     1  UNL1        0.2821
      5 N          -5.5316  -20.3085   20.3703 N.2     1  UNL1       -0.0268
      6 C          -6.9143  -20.3857   19.7941 C.2     1  UNL1        0.3760
      7 N          -7.5231  -21.2897   18.7634 N.2     1  UNL1       -0.0306
      8 C          -8.9595  -20.8938   18.5902 C.2     1  UNL1        0.2361
      9 C          -9.2385  -19.7453   19.5138 C.2     1  UNL1        0.0583
     10 C          -7.9745  -19.4313   20.2579 C.2     1  UNL1        0.1203
     11 C          -7.6519  -18.3995   21.2978 C.3     1  UNL1        0.2596
     12 N          -8.4842  -17.3328   21.9453 N.pl3   1  UNL1       -0.1895
     13 C          -9.9309  -17.0519   21.6656 C.3     1  UNL1        0.1603
     14 C         -10.4614  -16.1224   20.6146 C.3     1  UNL1        0.0466
     15 C         -11.9594  -16.1473   20.6872 C.3     1  UNL1        0.0041
     16 C         -13.1296  -16.7466   21.4094 C.3     1  UNL1        0.0003
     17 C         -12.5991  -17.6760   22.4605 C.3     1  UNL1        0.0040
     18 C         -11.1011  -17.6512   22.3878 C.3     1  UNL1        0.0428
     19 C         -10.7057  -16.7064   21.2919 C.3     1  UNL1        0.0041
     20 C          -8.0417  -15.4495   23.7899 C.3     1  UNL1        0.2079
     21 N          -7.0224  -14.6999   24.5956 N.3     1  UNL1       -0.1711
     22 H          -6.1473  -14.7388   24.0730 H       1  UNL1        0.1491
     23 C          -6.3958  -15.5645   27.3993 C.3     1  UNL1        0.1957
     24 S          -6.7091  -15.1322   25.9975 S.O2    1  UNL1        0.0431
     25 O          -5.2551  -14.8505   25.7594 O.2     1  UNL1       -0.1574
     26 O          -8.1631  -15.4140   26.2355 O.2     1  UNL1       -0.1574
@<TRIPOS>BOND
     1    23    24    1
     2    24    25    2
     3    24    26    2
     4    24    21    1
     5    21    20    1
     6    20     1    1
     7     1     2    2
     8     2     3    1
     9     3     4    2
    10     4     5    1
    11     5     6    2
    12     6     7    1
    13     7     8    2
    14     8     9    1
    15     9    10    2
    16    10    11    1
    17    11    12    1
    18    13    12    1
    19    13    14    1
    20    15    14    1
    21    15    16    1
    22    16    17    1
    23    18    17    1
    24    18    19    1
    25    12     1    1
    26    18    13    1
    27    11     3    1
    28    19    15    1
    29    10     6    1
    30    21    22    1
