@<TRIPOS>MOLECULE
*****
 38 42 0 0 0
SMALL
GASTEIGER

@<TRIPOS>ATOM
      1 N          -1.9553    3.6021   26.0964 N.3     1  UNL1       -0.2689
      2 C          -1.4144    3.5357   24.6989 C.3     1  UNL1        0.0737
      3 C          -0.3906    2.5002   24.3393 C.3     1  UNL1        0.0356
      4 C           0.0925    1.5311   25.3772 C.3     1  UNL1        0.0846
      5 C          -0.4484    1.5974   26.7747 C.3     1  UNL1        0.1455
      6 C          -1.4722    2.6329   27.1343 C.3     1  UNL1        0.1034
      7 N           1.1164    0.4955   25.0176 N.3     1  UNL1       -0.2915
      8 H           0.6146   -0.2723   24.5713 H       1  UNL1        0.1236
      9 C           2.2573    0.8518   24.1114 C.3     1  UNL1        0.1152
     10 C           2.5316    0.0251   22.8903 C.ar    1  UNL1        0.0765
     11 C           1.6996    0.2111   21.6562 C.ar    1  UNL1        0.0193
     12 C           1.9739   -0.6157   20.4350 C.ar    1  UNL1        0.0411
     13 C           3.0803   -1.6285   20.4480 C.ar    1  UNL1        0.1708
     14 C           3.9124   -1.8145   21.6822 C.ar    1  UNL1        0.1682
     15 N           3.6381   -0.9877   22.9033 N.ar    1  UNL1       -0.2304
     16 N           5.0188   -2.8272   21.6952 N.am    1  UNL1       -0.2639
     17 C           5.2931   -3.6540   20.4740 C.2     1  UNL1        0.2718
     18 O           6.3995   -4.6668   20.4870 O.2     1  UNL1       -0.2707
     19 C           4.4611   -3.4680   19.2399 C.3     1  UNL1        0.2898
     20 O           3.3547   -2.4553   19.2269 O.3     1  UNL1       -0.4628
     21 H           5.5649   -2.9493   22.5051 H       1  UNL1        0.1565
     22 O           0.0347    0.6282   27.8127 O.3     1  UNL1       -0.3508
     23 C          -0.9464   -0.2424   28.5403 C.3     1  UNL1        0.1741
     24 C          -2.9792    4.6377   26.4560 C.3     1  UNL1        0.0970
     25 C          -4.3847    4.2231   26.7764 C.3     1  UNL1        0.1264
     26 C          -5.3530    3.5546   22.4330 C.ar    1  UNL1        0.1403
     27 C          -6.5090    4.2733   21.8031 C.ar    1  UNL1        0.0385
     28 C          -7.3424    5.2149   22.6210 C.ar    1  UNL1        0.0237
     29 C          -7.0196    5.4378   24.0688 C.ar    1  UNL1        0.0975
     30 N          -7.8529    6.3794   24.8867 N.ar    1  UNL1       -0.2374
     31 C          -7.5302    6.6022   26.3344 C.ar    1  UNL1        0.1594
     32 C          -6.3741    5.8835   26.9644 C.ar    1  UNL1        0.2803
     33 O          -6.0513    6.1063   28.4122 O.2     1  UNL1       -0.2653
     34 N          -5.5407    4.9418   26.1465 N.ar    1  UNL1       -0.2913
     35 C          -5.8635    4.7190   24.6987 C.ar    1  UNL1        0.0832
     36 C          -5.0302    3.7774   23.8808 C.ar    1  UNL1        0.0557
     37 C          -3.5837    3.1510   20.5738 C.3     1  UNL1        0.2525
     38 O          -4.5196    2.6129   21.6151 O.3     1  UNL1       -0.4714
@<TRIPOS>BOND
     1    37    38    1
     2    38    26    1
     3    26    27   ar
     4    27    28   ar
     5    28    29   ar
     6    29    30   ar
     7    30    31   ar
     8    31    32   ar
     9    32    33    2
    10    32    34   ar
    11    34    25    1
    12    25    24    1
    13    24     1    1
    14     1     2    1
    15     2     3    1
    16     3     4    1
    17     4     7    1
    18     7     9    1
    19     9    10    1
    20    10    11   ar
    21    11    12   ar
    22    12    13   ar
    23    13    14   ar
    24    14    15   ar
    25    14    16    1
    26    16    17   am
    27    17    18    2
    28    17    19    1
    29    19    20    1
    30     4     5    1
    31     5    22    1
    32    22    23    1
    33     5     6    1
    34    34    35   ar
    35    35    36   ar
    36    36    26   ar
    37    35    29   ar
    38     6     1    1
    39    15    10   ar
    40    20    13    1
    41     7     8    1
    42    16    21    1
@<TRIPOS>MOLECULE
*****
 38 42 0 0 0
SMALL
GASTEIGER

@<TRIPOS>ATOM
      1 N         -13.5554   -1.2220   18.8332 N.3     1  UNL1       -0.2689
      2 C         -13.2191    0.1587   18.3529 C.3     1  UNL1        0.0737
      3 C         -14.2085    1.2733   18.5219 C.3     1  UNL1        0.0356
      4 C         -15.5342    1.0073   19.1712 C.3     1  UNL1        0.0846
      5 C         -15.8706   -0.3733   19.6515 C.3     1  UNL1        0.1455
      6 C         -14.8812   -1.4880   19.4825 C.3     1  UNL1        0.1034
      7 N         -16.5237    2.1220   19.3403 N.3     1  UNL1       -0.2915
      8 H         -17.1948    1.8157   20.0447 H       1  UNL1        0.1236
      9 C         -16.0541    3.4854   19.7535 C.3     1  UNL1        0.1152
     10 C         -15.8826    3.8107   21.2077 C.ar    1  UNL1        0.0765
     11 C         -16.8897    3.3266   22.2084 C.ar    1  UNL1        0.0193
     12 C         -16.7182    3.6520   23.6626 C.ar    1  UNL1        0.0411
     13 C         -15.5396    4.4615   24.1161 C.ar    1  UNL1        0.1708
     14 C         -14.5325    4.9456   23.1153 C.ar    1  UNL1        0.1682
     15 N         -14.7040    4.6202   21.6612 N.ar    1  UNL1       -0.2304
     16 N         -13.3538    5.7551   23.5688 N.am    1  UNL1       -0.2639
     17 C         -13.1823    6.0804   25.0231 C.2     1  UNL1        0.2718
     18 O         -12.0037    6.8899   25.4766 O.2     1  UNL1       -0.2707
     19 C         -14.1894    5.5963   26.0238 C.3     1  UNL1        0.2898
     20 O         -15.3680    4.7869   25.5703 O.3     1  UNL1       -0.4628
     21 H         -12.6929    6.0728   22.9120 H       1  UNL1        0.1565
     22 O         -17.1964   -0.6393   20.3008 O.3     1  UNL1       -0.3508
     23 C         -18.3155   -1.2395   19.5025 C.3     1  UNL1        0.1741
     24 C         -12.5660   -2.3367   18.6641 C.3     1  UNL1        0.0970
     25 C         -12.5224   -3.4582   19.6592 C.3     1  UNL1        0.1264
     26 C         -15.7245   -6.5590   19.0415 C.ar    1  UNL1        0.1403
     27 C         -15.3529   -7.9424   18.5966 C.ar    1  UNL1        0.0385
     28 C         -13.9140   -8.2923   18.3576 C.ar    1  UNL1        0.0237
     29 C         -12.8467   -7.2587   18.5635 C.ar    1  UNL1        0.0975
     30 N         -11.4077   -7.6086   18.3245 N.ar    1  UNL1       -0.2374
     31 C         -10.3404   -6.5750   18.5304 C.ar    1  UNL1        0.1594
     32 C         -10.7119   -5.1915   18.9753 C.ar    1  UNL1        0.2803
     33 O          -9.6446   -4.1579   19.1813 O.2     1  UNL1       -0.2653
     34 N         -12.1508   -4.8416   19.2143 N.ar    1  UNL1       -0.2913
     35 C         -13.2182   -5.8753   19.0084 C.ar    1  UNL1        0.0832
     36 C         -14.6571   -5.5254   19.2474 C.ar    1  UNL1        0.0557
     37 C         -18.1134   -7.2507   19.7929 C.3     1  UNL1        0.2525
     38 O         -17.1634   -6.2091   19.2805 O.3     1  UNL1       -0.4714
@<TRIPOS>BOND
     1    37    38    1
     2    38    26    1
     3    26    27   ar
     4    27    28   ar
     5    28    29   ar
     6    29    30   ar
     7    30    31   ar
     8    31    32   ar
     9    32    33    2
    10    32    34   ar
    11    34    25    1
    12    25    24    1
    13    24     1    1
    14     1     2    1
    15     2     3    1
    16     3     4    1
    17     4     7    1
    18     7     9    1
    19     9    10    1
    20    10    11   ar
    21    11    12   ar
    22    12    13   ar
    23    13    14   ar
    24    14    15   ar
    25    14    16    1
    26    16    17   am
    27    17    18    2
    28    17    19    1
    29    19    20    1
    30     4     5    1
    31     5    22    1
    32    22    23    1
    33     5     6    1
    34    34    35   ar
    35    35    36   ar
    36    36    26   ar
    37    35    29   ar
    38     6     1    1
    39    15    10   ar
    40    20    13    1
    41     7     8    1
    42    16    21    1
@<TRIPOS>MOLECULE
*****
 38 42 0 0 0
SMALL
GASTEIGER

@<TRIPOS>ATOM
      1 N           2.9650   -1.3631   21.0057 N.3     1  UNL1       -0.2689
      2 C           3.3246   -1.2871   22.4600 C.3     1  UNL1        0.0737
      3 C           4.2963   -2.2691   23.0445 C.3     1  UNL1        0.0356
      4 C           4.9082   -3.3269   22.1748 C.3     1  UNL1        0.0846
      5 C           4.5485   -3.4028   20.7205 C.3     1  UNL1        0.1455
      6 C           3.5769   -2.4209   20.1360 C.3     1  UNL1        0.1034
      7 N           5.8799   -4.3089   22.7593 N.3     1  UNL1       -0.2915
      8 H           6.1571   -4.9346   22.0030 H       1  UNL1        0.1236
      9 C           7.1439   -3.8208   23.4028 C.3     1  UNL1        0.1152
     10 C           7.7066   -4.5411   24.5921 C.ar    1  UNL1        0.0765
     11 C           8.6081   -3.8188   25.5488 C.ar    1  UNL1        0.0193
     12 C           9.1709   -4.5391   26.7382 C.ar    1  UNL1        0.0411
     13 C           8.8321   -5.9817   26.9708 C.ar    1  UNL1        0.1708
     14 C           7.9305   -6.7040   26.0139 C.ar    1  UNL1        0.1682
     15 N           7.3678   -5.9837   24.8246 N.ar    1  UNL1       -0.2304
     16 N           7.5917   -8.1466   26.2465 N.am    1  UNL1       -0.2639
     17 C           8.1545   -8.8669   27.4358 C.2     1  UNL1        0.2718
     18 O           7.8156  -10.3095   27.6684 O.2     1  UNL1       -0.2707
     19 C           9.0560   -8.1446   28.3926 C.3     1  UNL1        0.2898
     20 O           9.3948   -6.7020   28.1600 O.3     1  UNL1       -0.4628
     21 H           6.9999   -8.6207   25.6185 H       1  UNL1        0.1565
     22 O           5.1605   -4.4607   19.8508 O.3     1  UNL1       -0.3508
     23 C           4.2979   -5.2524   18.9132 C.3     1  UNL1        0.1741
     24 C           1.9933   -0.3810   20.4212 C.3     1  UNL1        0.0970
     25 C           2.0986    0.0089   18.9766 C.3     1  UNL1        0.1264
     26 C           6.3309   -0.4196   17.5091 C.ar    1  UNL1        0.1403
     27 C           7.1151    0.7971   17.1158 C.ar    1  UNL1        0.0385
     28 C           6.4886    2.1566   17.2118 C.ar    1  UNL1        0.0237
     29 C           5.0778    2.2994   17.7009 C.ar    1  UNL1        0.0975
     30 N           4.4513    3.6589   17.7969 N.ar    1  UNL1       -0.2374
     31 C           3.0405    3.8017   18.2860 C.ar    1  UNL1        0.1594
     32 C           2.2562    2.5850   18.6793 C.ar    1  UNL1        0.2803
     33 O           0.8455    2.7278   19.1684 O.2     1  UNL1       -0.2653
     34 N           2.8828    1.2255   18.5833 N.ar    1  UNL1       -0.2913
     35 C           4.2936    1.0828   18.0942 C.ar    1  UNL1        0.0832
     36 C           4.9202   -0.2767   17.9982 C.ar    1  UNL1        0.0557
     37 C           7.7116   -2.3414   18.5814 C.3     1  UNL1        0.2525
     38 O           6.9575   -1.7790   17.4131 O.3     1  UNL1       -0.4714
@<TRIPOS>BOND
     1    37    38    1
     2    38    26    1
     3    26    27   ar
     4    27    28   ar
     5    28    29   ar
     6    29    30   ar
     7    30    31   ar
     8    31    32   ar
     9    32    33    2
    10    32    34   ar
    11    34    25    1
    12    25    24    1
    13    24     1    1
    14     1     2    1
    15     2     3    1
    16     3     4    1
    17     4     7    1
    18     7     9    1
    19     9    10    1
    20    10    11   ar
    21    11    12   ar
    22    12    13   ar
    23    13    14   ar
    24    14    15   ar
    25    14    16    1
    26    16    17   am
    27    17    18    2
    28    17    19    1
    29    19    20    1
    30     4     5    1
    31     5    22    1
    32    22    23    1
    33     5     6    1
    34    34    35   ar
    35    35    36   ar
    36    36    26   ar
    37    35    29   ar
    38     6     1    1
    39    15    10   ar
    40    20    13    1
    41     7     8    1
    42    16    21    1
@<TRIPOS>MOLECULE
*****
 38 42 0 0 0
SMALL
GASTEIGER

@<TRIPOS>ATOM
      1 N           2.2172    0.3381   18.9394 N.3     1  UNL1       -0.2689
      2 C           1.3384   -0.4036   19.9025 C.3     1  UNL1        0.0737
      3 C           0.1870    0.2977   20.5601 C.3     1  UNL1        0.0356
      4 C          -0.0856    1.7407   20.2545 C.3     1  UNL1        0.0846
      5 C           0.7932    2.4824   19.2913 C.3     1  UNL1        0.1455
      6 C           1.9446    1.7811   18.6338 C.3     1  UNL1        0.1034
      7 N          -1.2371    2.4421   20.9121 N.3     1  UNL1       -0.2915
      8 H          -1.8107    1.7206   21.3489 H       1  UNL1        0.1236
      9 C          -0.9808    3.4847   21.9596 C.3     1  UNL1        0.1152
     10 C          -0.9886    3.1071   23.4112 C.ar    1  UNL1        0.0765
     11 C          -2.0907    3.5913   24.3061 C.ar    1  UNL1        0.0193
     12 C          -2.0986    3.2137   25.7579 C.ar    1  UNL1        0.0411
     13 C          -1.0043    2.3520   26.3146 C.ar    1  UNL1        0.1708
     14 C           0.0979    1.8679   25.4197 C.ar    1  UNL1        0.1682
     15 N           0.1057    2.2455   23.9680 N.ar    1  UNL1       -0.2304
     16 N           1.1922    1.0062   25.9764 N.am    1  UNL1       -0.2639
     17 C           1.1844    0.6287   27.4282 C.2     1  UNL1        0.2718
     18 O           2.2787   -0.2330   27.9849 O.2     1  UNL1       -0.2707
     19 C           0.0822    1.1128   28.3231 C.3     1  UNL1        0.2898
     20 O          -1.0121    1.9745   27.7663 O.3     1  UNL1       -0.4628
     21 H           1.9156    0.6885   25.3891 H       1  UNL1        0.1565
     22 O           0.5205    3.9255   18.9858 O.3     1  UNL1       -0.3508
     23 C           1.5079    4.7222   18.1856 C.3     1  UNL1        0.1741
     24 C           3.3686   -0.3632   18.2818 C.3     1  UNL1        0.0970
     25 C           4.6898   -0.4582   18.9857 C.3     1  UNL1        0.1264
     26 C           3.9463   -0.4386   23.4238 C.ar    1  UNL1        0.1403
     27 C           4.2734   -1.6508   24.2444 C.ar    1  UNL1        0.0385
     28 C           4.8485   -2.8696   23.5856 C.ar    1  UNL1        0.0237
     29 C           5.0963   -2.8761   22.1063 C.ar    1  UNL1        0.0975
     30 N           5.6713   -4.0949   21.4476 N.ar    1  UNL1       -0.2374
     31 C           5.9192   -4.1015   19.9682 C.ar    1  UNL1        0.1594
     32 C           5.5920   -2.8892   19.1475 C.ar    1  UNL1        0.2803
     33 O           5.8398   -2.8958   17.6682 O.2     1  UNL1       -0.2653
     34 N           5.0170   -1.6704   19.8063 N.ar    1  UNL1       -0.2913
     35 C           4.7691   -1.6639   21.2857 C.ar    1  UNL1        0.0832
     36 C           4.1941   -0.4451   21.9444 C.ar    1  UNL1        0.0557
     37 C           4.0861    2.0950   23.9816 C.3     1  UNL1        0.2525
     38 O           3.3713    0.7802   24.0825 O.3     1  UNL1       -0.4714
@<TRIPOS>BOND
     1    37    38    1
     2    38    26    1
     3    26    27   ar
     4    27    28   ar
     5    28    29   ar
     6    29    30   ar
     7    30    31   ar
     8    31    32   ar
     9    32    33    2
    10    32    34   ar
    11    34    25    1
    12    25    24    1
    13    24     1    1
    14     1     2    1
    15     2     3    1
    16     3     4    1
    17     4     7    1
    18     7     9    1
    19     9    10    1
    20    10    11   ar
    21    11    12   ar
    22    12    13   ar
    23    13    14   ar
    24    14    15   ar
    25    14    16    1
    26    16    17   am
    27    17    18    2
    28    17    19    1
    29    19    20    1
    30     4     5    1
    31     5    22    1
    32    22    23    1
    33     5     6    1
    34    34    35   ar
    35    35    36   ar
    36    36    26   ar
    37    35    29   ar
    38     6     1    1
    39    15    10   ar
    40    20    13    1
    41     7     8    1
    42    16    21    1
@<TRIPOS>MOLECULE
*****
 38 42 0 0 0
SMALL
GASTEIGER

@<TRIPOS>ATOM
      1 N           4.2608   -1.2680   24.3812 N.3     1  UNL1       -0.2689
      2 C           4.6334   -1.6881   25.7721 C.3     1  UNL1        0.0737
      3 C           3.9694   -1.0446   26.9531 C.3     1  UNL1        0.0356
      4 C           2.9328    0.0190   26.7433 C.3     1  UNL1        0.0846
      5 C           2.5601    0.4391   25.3524 C.3     1  UNL1        0.1455
      6 C           3.2241   -0.2045   24.1713 C.3     1  UNL1        0.1034
      7 N           2.2687    0.6626   27.9244 N.3     1  UNL1       -0.2915
      8 H           1.4412    1.1430   27.5713 H       1  UNL1        0.1236
      9 C           1.8201   -0.1782   29.0828 C.3     1  UNL1        0.1152
     10 C           2.4405    0.0153   30.4347 C.ar    1  UNL1        0.0765
     11 C           3.6516   -0.7791   30.8246 C.ar    1  UNL1        0.0193
     12 C           4.2721   -0.5857   32.1766 C.ar    1  UNL1        0.0411
     13 C           3.6814    0.4022   33.1385 C.ar    1  UNL1        0.1708
     14 C           2.4703    1.1966   32.7484 C.ar    1  UNL1        0.1682
     15 N           1.8498    1.0031   31.3966 N.ar    1  UNL1       -0.2304
     16 N           1.8796    2.1844   33.7103 N.am    1  UNL1       -0.2639
     17 C           2.5001    2.3779   35.0623 C.2     1  UNL1        0.2718
     18 O           1.9094    3.3657   36.0242 O.2     1  UNL1       -0.2707
     19 C           3.7112    1.5835   35.4522 C.3     1  UNL1        0.2898
     20 O           4.3019    0.5956   34.4903 O.3     1  UNL1       -0.4628
     21 H           1.0847    2.7058   33.4544 H       1  UNL1        0.1565
     22 O           1.5234    1.5027   25.1426 O.3     1  UNL1       -0.3508
     23 C           0.0664    1.1584   25.2345 C.3     1  UNL1        0.1741
     24 C           4.9248   -1.9116   23.2001 C.3     1  UNL1        0.0970
     25 C           4.0979   -2.6222   22.1698 C.3     1  UNL1        0.1264
     26 C           1.7659    0.3092   19.6761 C.ar    1  UNL1        0.1403
     27 C           2.0815    0.4717   18.2187 C.ar    1  UNL1        0.0385
     28 C           3.1744   -0.3428   17.5926 C.ar    1  UNL1        0.0237
     29 C           3.9517   -1.3199   18.4238 C.ar    1  UNL1        0.0975
     30 N           5.0446   -2.1345   17.7976 N.ar    1  UNL1       -0.2374
     31 C           5.8219   -3.1116   18.6289 C.ar    1  UNL1        0.1594
     32 C           5.5064   -3.2742   20.0863 C.ar    1  UNL1        0.2803
     33 O           6.2837   -4.2513   20.9175 O.2     1  UNL1       -0.2653
     34 N           4.4135   -2.4596   20.7125 N.ar    1  UNL1       -0.2913
     35 C           3.6361   -1.4825   19.8811 C.ar    1  UNL1        0.0832
     36 C           2.5432   -0.6679   20.5073 C.ar    1  UNL1        0.0557
     37 C           0.8668    1.7162   21.6665 C.3     1  UNL1        0.2525
     38 O           0.6730    1.1238   20.3022 O.3     1  UNL1       -0.4714
@<TRIPOS>BOND
     1    37    38    1
     2    38    26    1
     3    26    27   ar
     4    27    28   ar
     5    28    29   ar
     6    29    30   ar
     7    30    31   ar
     8    31    32   ar
     9    32    33    2
    10    32    34   ar
    11    34    25    1
    12    25    24    1
    13    24     1    1
    14     1     2    1
    15     2     3    1
    16     3     4    1
    17     4     7    1
    18     7     9    1
    19     9    10    1
    20    10    11   ar
    21    11    12   ar
    22    12    13   ar
    23    13    14   ar
    24    14    15   ar
    25    14    16    1
    26    16    17   am
    27    17    18    2
    28    17    19    1
    29    19    20    1
    30     4     5    1
    31     5    22    1
    32    22    23    1
    33     5     6    1
    34    34    35   ar
    35    35    36   ar
    36    36    26   ar
    37    35    29   ar
    38     6     1    1
    39    15    10   ar
    40    20    13    1
    41     7     8    1
    42    16    21    1
@<TRIPOS>MOLECULE
*****
 38 42 0 0 0
SMALL
GASTEIGER

@<TRIPOS>ATOM
      1 N           5.8959   -3.1024   24.6709 N.3     1  UNL1       -0.2689
      2 C           4.7004   -2.3827   24.1206 C.3     1  UNL1        0.0737
      3 C           4.4140   -2.4207   22.6487 C.3     1  UNL1        0.0356
      4 C           5.3232   -3.1784   21.7271 C.3     1  UNL1        0.0846
      5 C           6.5187   -3.8981   22.2774 C.3     1  UNL1        0.1455
      6 C           6.8050   -3.8600   23.7493 C.3     1  UNL1        0.1034
      7 N           5.0368   -3.2165   20.2551 N.3     1  UNL1       -0.2915
      8 H           5.4093   -4.0993   19.9054 H       1  UNL1        0.1236
      9 C           3.6232   -3.1177   19.7633 C.3     1  UNL1        0.1152
     10 C           3.0436   -1.7800   19.4104 C.ar    1  UNL1        0.0765
     11 C           3.6361   -0.9780   18.2899 C.ar    1  UNL1        0.0193
     12 C           3.0565    0.3598   17.9369 C.ar    1  UNL1        0.0411
     13 C           1.8844    0.8954   18.7046 C.ar    1  UNL1        0.1708
     14 C           1.2919    0.0933   19.8252 C.ar    1  UNL1        0.1682
     15 N           1.8715   -1.2444   20.1781 N.ar    1  UNL1       -0.2304
     16 N           0.1198    0.6290   20.5928 N.am    1  UNL1       -0.2639
     17 C          -0.4598    1.9667   20.2399 C.2     1  UNL1        0.2718
     18 O          -1.6319    2.5024   21.0075 O.2     1  UNL1       -0.2707
     19 C           0.1327    2.7688   19.1194 C.3     1  UNL1        0.2898
     20 O           1.3048    2.2331   18.3517 O.3     1  UNL1       -0.4628
     21 H          -0.2691    0.1025   21.3283 H       1  UNL1        0.1565
     22 O           7.4278   -4.6558   21.3558 O.3     1  UNL1       -0.3508
     23 C           8.6132   -3.9716   20.7419 C.3     1  UNL1        0.1741
     24 C           6.1822   -3.0643   26.1429 C.3     1  UNL1        0.0970
     25 C           7.5727   -3.3214   26.6433 C.3     1  UNL1        0.1264
     26 C           6.4165   -3.3199   30.9922 C.ar    1  UNL1        0.1403
     27 C           6.6969   -4.5229   31.8432 C.ar    1  UNL1        0.0385
     28 C           7.3627   -5.7264   31.2445 C.ar    1  UNL1        0.0237
     29 C           7.7481   -5.7269   29.7949 C.ar    1  UNL1        0.0975
     30 N           8.4139   -6.9303   29.1963 N.ar    1  UNL1       -0.2374
     31 C           8.7993   -6.9308   27.7467 C.ar    1  UNL1        0.1594
     32 C           8.5189   -5.7278   26.8956 C.ar    1  UNL1        0.2803
     33 O           8.9043   -5.7283   25.4460 O.2     1  UNL1       -0.2653
     34 N           7.8531   -4.5243   27.4943 N.ar    1  UNL1       -0.2913
     35 C           7.4677   -4.5239   28.9440 C.ar    1  UNL1        0.0832
     36 C           6.8019   -3.3204   29.5426 C.ar    1  UNL1        0.0557
     37 C           4.9406   -2.2540   32.8457 C.3     1  UNL1        0.2525
     38 O           5.7507   -2.1164   31.5908 O.3     1  UNL1       -0.4714
@<TRIPOS>BOND
     1    37    38    1
     2    38    26    1
     3    26    27   ar
     4    27    28   ar
     5    28    29   ar
     6    29    30   ar
     7    30    31   ar
     8    31    32   ar
     9    32    33    2
    10    32    34   ar
    11    34    25    1
    12    25    24    1
    13    24     1    1
    14     1     2    1
    15     2     3    1
    16     3     4    1
    17     4     7    1
    18     7     9    1
    19     9    10    1
    20    10    11   ar
    21    11    12   ar
    22    12    13   ar
    23    13    14   ar
    24    14    15   ar
    25    14    16    1
    26    16    17   am
    27    17    18    2
    28    17    19    1
    29    19    20    1
    30     4     5    1
    31     5    22    1
    32    22    23    1
    33     5     6    1
    34    34    35   ar
    35    35    36   ar
    36    36    26   ar
    37    35    29   ar
    38     6     1    1
    39    15    10   ar
    40    20    13    1
    41     7     8    1
    42    16    21    1
@<TRIPOS>MOLECULE
*****
 38 42 0 0 0
SMALL
GASTEIGER

@<TRIPOS>ATOM
      1 N           3.8505   -0.7206   29.3840 N.3     1  UNL1       -0.2689
      2 C           4.3662   -0.5971   27.9808 C.3     1  UNL1        0.0737
      3 C           3.4634   -0.0998   26.8910 C.3     1  UNL1        0.0356
      4 C           2.0450    0.2742   27.2045 C.3     1  UNL1        0.0846
      5 C           1.5294    0.1508   28.6076 C.3     1  UNL1        0.1455
      6 C           2.4321   -0.3466   29.6974 C.3     1  UNL1        0.1034
      7 N           1.1422    0.7716   26.1147 N.3     1  UNL1       -0.2915
      8 H           0.4911    1.4265   26.5477 H       1  UNL1        0.1236
      9 C           1.7226    1.4654   24.9181 C.3     1  UNL1        0.1152
     10 C           1.9170    0.7123   23.6356 C.ar    1  UNL1        0.0765
     11 C           1.1204    1.0833   22.4199 C.ar    1  UNL1        0.0193
     12 C           1.3147    0.3303   21.1373 C.ar    1  UNL1        0.0411
     13 C           2.3057   -0.7938   21.0703 C.ar    1  UNL1        0.1708
     14 C           3.1023   -1.1648   22.2860 C.ar    1  UNL1        0.1682
     15 N           2.9079   -0.4118   23.5686 N.ar    1  UNL1       -0.2304
     16 N           4.0932   -2.2889   22.2190 N.am    1  UNL1       -0.2639
     17 C           4.2876   -3.0420   20.9363 C.2     1  UNL1        0.2718
     18 O           5.2785   -4.1660   20.8694 O.2     1  UNL1       -0.2707
     19 C           3.4910   -2.6709   19.7207 C.3     1  UNL1        0.2898
     20 O           2.5000   -1.5469   19.7877 O.3     1  UNL1       -0.4628
     21 H           4.6161   -2.5324   23.0169 H       1  UNL1        0.1565
     22 O           0.1109    0.5247   28.9210 O.3     1  UNL1       -0.3508
     23 C          -0.9811   -0.4945   28.7842 C.3     1  UNL1        0.1741
     24 C           4.7534   -1.2179   30.4738 C.3     1  UNL1        0.0970
     25 C           6.1398   -1.6858   30.1439 C.3     1  UNL1        0.1264
     26 C           6.6442   -3.9654   26.2970 C.ar    1  UNL1        0.1403
     27 C           6.9694   -5.4294   26.3298 C.ar    1  UNL1        0.0385
     28 C           7.1265   -6.1334   27.6450 C.ar    1  UNL1        0.0237
     29 C           6.9584   -5.3736   28.9272 C.ar    1  UNL1        0.0975
     30 N           7.1155   -6.0776   30.2424 N.ar    1  UNL1       -0.2374
     31 C           6.9474   -5.3178   31.5247 C.ar    1  UNL1        0.1594
     32 C           6.6222   -3.8538   31.4919 C.ar    1  UNL1        0.2803
     33 O           6.4541   -3.0940   32.7742 O.2     1  UNL1       -0.2653
     34 N           6.4651   -3.1497   30.1767 N.ar    1  UNL1       -0.2913
     35 C           6.6332   -3.9097   28.8944 C.ar    1  UNL1        0.0832
     36 C           6.4761   -3.2056   27.5793 C.ar    1  UNL1        0.0557
     37 C           6.7964   -1.7977   24.8730 C.3     1  UNL1        0.2525
     38 O           6.4871   -3.2614   24.9818 O.3     1  UNL1       -0.4714
@<TRIPOS>BOND
     1    37    38    1
     2    38    26    1
     3    26    27   ar
     4    27    28   ar
     5    28    29   ar
     6    29    30   ar
     7    30    31   ar
     8    31    32   ar
     9    32    33    2
    10    32    34   ar
    11    34    25    1
    12    25    24    1
    13    24     1    1
    14     1     2    1
    15     2     3    1
    16     3     4    1
    17     4     7    1
    18     7     9    1
    19     9    10    1
    20    10    11   ar
    21    11    12   ar
    22    12    13   ar
    23    13    14   ar
    24    14    15   ar
    25    14    16    1
    26    16    17   am
    27    17    18    2
    28    17    19    1
    29    19    20    1
    30     4     5    1
    31     5    22    1
    32    22    23    1
    33     5     6    1
    34    34    35   ar
    35    35    36   ar
    36    36    26   ar
    37    35    29   ar
    38     6     1    1
    39    15    10   ar
    40    20    13    1
    41     7     8    1
    42    16    21    1
@<TRIPOS>MOLECULE
*****
 38 42 0 0 0
SMALL
GASTEIGER

@<TRIPOS>ATOM
      1 N           5.6541   -2.1519   25.9889 N.3     1  UNL1       -0.2689
      2 C           4.6303   -1.7454   24.9707 C.3     1  UNL1        0.0737
      3 C           4.5629   -2.4543   23.6505 C.3     1  UNL1        0.0356
      4 C           5.5192   -3.5698   23.3486 C.3     1  UNL1        0.0846
      5 C           6.5429   -3.9763   24.3668 C.3     1  UNL1        0.1455
      6 C           6.6103   -3.2674   25.6869 C.3     1  UNL1        0.1034
      7 N           5.4517   -4.2788   22.0284 N.3     1  UNL1       -0.2915
      8 H           4.4700   -4.5010   21.8633 H       1  UNL1        0.1236
      9 C           5.9574   -3.6038   20.7879 C.3     1  UNL1        0.1152
     10 C           5.0763   -2.6448   20.0436 C.ar    1  UNL1        0.0765
     11 C           5.4592   -2.1884   18.6670 C.ar    1  UNL1        0.0193
     12 C           4.5780   -1.2294   17.9227 C.ar    1  UNL1        0.0411
     13 C           3.3140   -0.7269   18.5549 C.ar    1  UNL1        0.1708
     14 C           2.9311   -1.1834   19.9316 C.ar    1  UNL1        0.1682
     15 N           3.8122   -2.1424   20.6759 N.ar    1  UNL1       -0.2304
     16 N           1.6671   -0.6810   20.5638 N.am    1  UNL1       -0.2639
     17 C           0.7860    0.2780   19.8194 C.2     1  UNL1        0.2718
     18 O          -0.4781    0.7805   20.4517 O.2     1  UNL1       -0.2707
     19 C           1.1689    0.7345   18.4429 C.3     1  UNL1        0.2898
     20 O           2.4329    0.2320   17.8106 O.3     1  UNL1       -0.4628
     21 H           1.4158   -0.9806   21.4673 H       1  UNL1        0.1565
     22 O           7.4992   -5.0919   24.0647 O.3     1  UNL1       -0.3508
     23 C           7.6638   -6.2224   25.0367 C.3     1  UNL1        0.1741
     24 C           5.7215   -1.4430   27.3091 C.3     1  UNL1        0.0970
     25 C           4.9704   -0.1603   27.5107 C.3     1  UNL1        0.1264
     26 C           1.0898    1.2105   25.6908 C.ar    1  UNL1        0.1403
     27 C          -0.1622    1.2245   26.5167 C.ar    1  UNL1        0.0385
     28 C          -0.1208    0.7816   27.9492 C.ar    1  UNL1        0.0237
     29 C           1.1727    0.3247   28.5559 C.ar    1  UNL1        0.0975
     30 N           1.2141   -0.1182   29.9884 N.ar    1  UNL1       -0.2374
     31 C           2.5076   -0.5751   30.5950 C.ar    1  UNL1        0.1594
     32 C           3.7597   -0.5892   29.7692 C.ar    1  UNL1        0.2803
     33 O           5.0532   -1.0461   30.3758 O.2     1  UNL1       -0.2653
     34 N           3.7183   -0.1463   28.3366 N.ar    1  UNL1       -0.2913
     35 C           2.4247    0.3107   27.7300 C.ar    1  UNL1        0.0832
     36 C           2.3833    0.7536   26.2975 C.ar    1  UNL1        0.0557
     37 C           0.2089    2.8314   23.8614 C.3     1  UNL1        0.2525
     38 O           1.0484    1.6534   24.2583 O.3     1  UNL1       -0.4714
@<TRIPOS>BOND
     1    37    38    1
     2    38    26    1
     3    26    27   ar
     4    27    28   ar
     5    28    29   ar
     6    29    30   ar
     7    30    31   ar
     8    31    32   ar
     9    32    33    2
    10    32    34   ar
    11    34    25    1
    12    25    24    1
    13    24     1    1
    14     1     2    1
    15     2     3    1
    16     3     4    1
    17     4     7    1
    18     7     9    1
    19     9    10    1
    20    10    11   ar
    21    11    12   ar
    22    12    13   ar
    23    13    14   ar
    24    14    15   ar
    25    14    16    1
    26    16    17   am
    27    17    18    2
    28    17    19    1
    29    19    20    1
    30     4     5    1
    31     5    22    1
    32    22    23    1
    33     5     6    1
    34    34    35   ar
    35    35    36   ar
    36    36    26   ar
    37    35    29   ar
    38     6     1    1
    39    15    10   ar
    40    20    13    1
    41     7     8    1
    42    16    21    1
@<TRIPOS>MOLECULE
*****
 38 42 0 0 0
SMALL
GASTEIGER

@<TRIPOS>ATOM
      1 N           5.4113   -2.8338   23.8050 N.3     1  UNL1       -0.2689
      2 C           5.5997   -2.0171   25.0489 C.3     1  UNL1        0.0737
      3 C           6.7204   -2.3365   25.9933 C.3     1  UNL1        0.0356
      4 C           7.6527   -3.4726   25.6938 C.3     1  UNL1        0.0846
      5 C           7.4644   -4.2894   24.4498 C.3     1  UNL1        0.1455
      6 C           6.3437   -3.9700   23.5054 C.3     1  UNL1        0.1034
      7 N           8.7735   -3.7921   26.6382 N.3     1  UNL1       -0.2915
      8 H           8.9792   -2.9351   27.1517 H       1  UNL1        0.1236
      9 C           8.6076   -4.8789   27.6586 C.3     1  UNL1        0.1152
     10 C           7.9098   -4.5907   28.9547 C.ar    1  UNL1        0.0765
     11 C           7.8818   -5.6277   30.0382 C.ar    1  UNL1        0.0193
     12 C           7.1839   -5.3394   31.3344 C.ar    1  UNL1        0.0411
     13 C           6.5143   -4.0142   31.5471 C.ar    1  UNL1        0.1708
     14 C           6.5424   -2.9772   30.4636 C.ar    1  UNL1        0.1682
     15 N           7.2402   -3.2654   29.1674 N.ar    1  UNL1       -0.2304
     16 N           5.8727   -1.6519   30.6762 N.am    1  UNL1       -0.2639
     17 C           5.1749   -1.3637   31.9724 C.2     1  UNL1        0.2718
     18 O           4.5052   -0.0384   32.1851 O.2     1  UNL1       -0.2707
     19 C           5.1468   -2.4007   33.0559 C.3     1  UNL1        0.2898
     20 O           5.8165   -3.7259   32.8432 O.3     1  UNL1       -0.4628
     21 H           5.8911   -0.9713   29.9651 H       1  UNL1        0.1565
     22 O           8.3969   -5.4256   24.1503 O.3     1  UNL1       -0.3508
     23 C           7.9917   -6.8333   24.4730 C.3     1  UNL1        0.1741
     24 C           4.2906   -2.5144   22.8605 C.3     1  UNL1        0.0970
     25 C           4.0870   -3.3467   21.6294 C.3     1  UNL1        0.1264
     26 C           1.5005   -0.1988   19.7187 C.ar    1  UNL1        0.1403
     27 C           1.8625    0.3532   18.3718 C.ar    1  UNL1        0.0385
     28 C           3.0868   -0.1440   17.6618 C.ar    1  UNL1        0.0237
     29 C           3.9489   -1.1933   18.2987 C.ar    1  UNL1        0.0975
     30 N           5.1731   -1.6905   17.5887 N.ar    1  UNL1       -0.2374
     31 C           6.0353   -2.7398   18.2256 C.ar    1  UNL1        0.1594
     32 C           5.6732   -3.2919   19.5725 C.ar    1  UNL1        0.2803
     33 O           6.5354   -4.3412   20.2094 O.2     1  UNL1       -0.2653
     34 N           4.4490   -2.7947   20.2825 N.ar    1  UNL1       -0.2913
     35 C           3.5869   -1.7453   19.6455 C.ar    1  UNL1        0.0832
     36 C           2.3627   -1.2481   20.3555 C.ar    1  UNL1        0.0557
     37 C           0.4077    1.2956   21.5414 C.3     1  UNL1        0.2525
     38 O           0.2763    0.2984   20.4287 O.3     1  UNL1       -0.4714
@<TRIPOS>BOND
     1    37    38    1
     2    38    26    1
     3    26    27   ar
     4    27    28   ar
     5    28    29   ar
     6    29    30   ar
     7    30    31   ar
     8    31    32   ar
     9    32    33    2
    10    32    34   ar
    11    34    25    1
    12    25    24    1
    13    24     1    1
    14     1     2    1
    15     2     3    1
    16     3     4    1
    17     4     7    1
    18     7     9    1
    19     9    10    1
    20    10    11   ar
    21    11    12   ar
    22    12    13   ar
    23    13    14   ar
    24    14    15   ar
    25    14    16    1
    26    16    17   am
    27    17    18    2
    28    17    19    1
    29    19    20    1
    30     4     5    1
    31     5    22    1
    32    22    23    1
    33     5     6    1
    34    34    35   ar
    35    35    36   ar
    36    36    26   ar
    37    35    29   ar
    38     6     1    1
    39    15    10   ar
    40    20    13    1
    41     7     8    1
    42    16    21    1
