@<TRIPOS>MOLECULE
*****
 28 30 0 0 0
SMALL
GASTEIGER

@<TRIPOS>ATOM
      1 C          -3.3462  -19.0177   21.4676 C.3     1  UNL1        0.0614
      2 C          -2.9036  -20.0851   20.5112 C.3     1  UNL1        0.0082
      3 C          -3.9169  -20.9913   19.8774 C.3     1  UNL1        0.0051
      4 C          -5.3729  -20.8302   20.1998 C.3     1  UNL1        0.0261
      5 C          -5.8156  -19.7628   21.1562 C.ar    1  UNL1       -0.0247
      6 C          -7.2716  -19.6016   21.4787 C.ar    1  UNL1        0.0142
      7 C          -7.7143  -18.5342   22.4351 C.ar    1  UNL1        0.1100
      8 C          -6.7009  -17.6279   23.0690 C.ar    1  UNL1        0.0184
      9 C          -5.2449  -17.7891   22.7465 C.ar    1  UNL1       -0.0031
     10 C          -4.8022  -18.8565   21.7901 C.ar    1  UNL1       -0.0230
     11 S          -9.1703  -18.3730   22.7576 S.O2    1  UNL1        0.0274
     12 O          -9.1296  -19.6328   23.5708 O.2     1  UNL1       -0.1642
     13 O          -9.2111  -17.1133   21.9445 O.2     1  UNL1       -0.1642
     14 C         -10.6263  -18.2119   23.0802 C.ar    1  UNL1        0.1103
     15 C         -11.5231  -17.4584   22.1432 C.ar    1  UNL1        0.0187
     16 C         -12.9792  -17.2973   22.4657 C.ar    1  UNL1        0.0013
     17 C         -13.5384  -17.8896   23.7253 C.ar    1  UNL1        0.0001
     18 C         -12.6415  -18.6431   24.6623 C.ar    1  UNL1        0.0013
     19 C         -11.1855  -18.8042   24.3397 C.ar    1  UNL1        0.0187
     20 C          -2.3328  -18.1114   22.1014 C.3     1  UNL1        0.1781
     21 N          -1.6247  -17.0817   21.2719 N.pl3   1  UNL1       -0.2622
     22 H          -1.8102  -16.1249   21.4111 H       1  UNL1        0.2588
     23 N           0.7822  -17.8123   20.6215 N.pl3   1  UNL1       -0.1298
     24 C          -0.6339  -17.5098   20.2302 C.cat   1  UNL1        0.3769
     25 N          -1.0592  -17.6352   18.7972 N.pl3   1  UNL1       -0.2892
     26 H           1.4325  -18.0933   19.9378 H       1  UNL1        0.3062
     27 H          -0.4089  -17.9162   18.1135 H       1  UNL1        0.2546
     28 H          -1.9886  -17.4366   18.5404 H       1  UNL1        0.2546
@<TRIPOS>BOND
     1    23    24    2
     2    24    25    1
     3    24    21    1
     4    21    20    1
     5    20     1    1
     6     1     2    1
     7     2     3    1
     8     3     4    1
     9     4     5    1
    10     5     6   ar
    11     6     7   ar
    12     7    11    1
    13    11    12    2
    14    11    13    2
    15    11    14    1
    16    14    15   ar
    17    15    16   ar
    18    16    17   ar
    19    17    18   ar
    20    18    19   ar
    21     7     8   ar
    22     8     9   ar
    23     9    10   ar
    24    10     1    1
    25    10     5   ar
    26    19    14   ar
    27    23    26    1
    28    25    27    1
    29    25    28    1
    30    21    22    1
@<TRIPOS>MOLECULE
*****
 28 30 0 0 0
SMALL
GASTEIGER

@<TRIPOS>ATOM
      1 C          -3.2389  -19.0631   21.4706 C.3     1  UNL1        0.0614
      2 C          -2.2496  -18.3236   22.3216 C.3     1  UNL1        0.0082
      3 C          -2.7310  -17.4176   23.4159 C.3     1  UNL1        0.0051
      4 C          -4.2017  -17.2512   23.6591 C.3     1  UNL1        0.0261
      5 C          -5.1910  -17.9907   22.8081 C.ar    1  UNL1       -0.0247
      6 C          -6.6618  -17.8243   23.0513 C.ar    1  UNL1        0.0142
      7 C          -7.6511  -18.5638   22.2003 C.ar    1  UNL1        0.1100
      8 C          -7.1697  -19.4698   21.1060 C.ar    1  UNL1        0.0184
      9 C          -5.6990  -19.6362   20.8628 C.ar    1  UNL1       -0.0031
     10 C          -4.7096  -18.8967   21.7138 C.ar    1  UNL1       -0.0230
     11 S          -9.1220  -18.3974   22.4435 S.O2    1  UNL1        0.0274
     12 O          -9.0612  -19.4376   23.5224 O.2     1  UNL1       -0.1642
     13 O          -9.1827  -17.3571   21.3646 O.2     1  UNL1       -0.1642
     14 C         -10.5927  -18.2310   22.6867 C.ar    1  UNL1        0.1103
     15 C         -11.1688  -18.5371   24.0374 C.ar    1  UNL1        0.0187
     16 C         -12.6396  -18.3708   24.2807 C.ar    1  UNL1        0.0013
     17 C         -13.5342  -17.8983   23.1733 C.ar    1  UNL1        0.0001
     18 C         -12.9581  -17.5921   21.8225 C.ar    1  UNL1        0.0013
     19 C         -11.4873  -17.7585   21.5793 C.ar    1  UNL1        0.0187
     20 C          -2.7575  -19.9691   20.3763 C.3     1  UNL1        0.1781
     21 N          -2.6831  -19.4666   18.9649 N.pl3   1  UNL1       -0.2622
     22 H          -2.8911  -20.0706   18.2158 H       1  UNL1        0.2588
     23 N          -0.8456  -17.6824   18.5290 N.pl3   1  UNL1       -0.1298
     24 C          -2.2919  -18.0440   18.6949 C.cat   1  UNL1        0.3769
     25 N          -3.3470  -16.9828   18.5908 N.pl3   1  UNL1       -0.2892
     26 H          -0.5889  -16.7487   18.3518 H       1  UNL1        0.3062
     27 H          -3.0902  -16.0490   18.4136 H       1  UNL1        0.2546
     28 H          -4.2962  -17.2201   18.6997 H       1  UNL1        0.2546
@<TRIPOS>BOND
     1    23    24    2
     2    24    25    1
     3    24    21    1
     4    21    20    1
     5    20     1    1
     6     1     2    1
     7     2     3    1
     8     3     4    1
     9     4     5    1
    10     5     6   ar
    11     6     7   ar
    12     7    11    1
    13    11    12    2
    14    11    13    2
    15    11    14    1
    16    14    15   ar
    17    15    16   ar
    18    16    17   ar
    19    17    18   ar
    20    18    19   ar
    21     7     8   ar
    22     8     9   ar
    23     9    10   ar
    24    10     1    1
    25    10     5   ar
    26    19    14   ar
    27    23    26    1
    28    25    27    1
    29    25    28    1
    30    21    22    1
@<TRIPOS>MOLECULE
*****
 28 30 0 0 0
SMALL
GASTEIGER

@<TRIPOS>ATOM
      1 C           7.7074   -6.0715   27.7478 C.3     1  UNL1        0.0614
      2 C           8.2950   -7.4338   27.9693 C.3     1  UNL1        0.0082
      3 C           8.7145   -8.2694   26.7964 C.3     1  UNL1        0.0051
      4 C           8.5465   -7.7428   25.4020 C.3     1  UNL1        0.0261
      5 C           7.9590   -6.3806   25.1804 C.ar    1  UNL1       -0.0247
      6 C           7.7909   -5.8539   23.7860 C.ar    1  UNL1        0.0142
      7 C           7.2034   -4.4917   23.5645 C.ar    1  UNL1        0.1100
      8 C           6.7839   -3.6561   24.7374 C.ar    1  UNL1        0.0184
      9 C           6.9519   -4.1827   26.1318 C.ar    1  UNL1       -0.0031
     10 C           7.5394   -5.5450   26.3533 C.ar    1  UNL1       -0.0230
     11 S           7.0354   -3.9651   22.1700 S.O2    1  UNL1        0.0274
     12 O           8.5084   -3.6921   22.0957 O.2     1  UNL1       -0.1642
     13 O           5.5624   -4.2381   22.2443 O.2     1  UNL1       -0.1642
     14 C           6.8674   -3.4384   20.7756 C.ar    1  UNL1        0.1103
     15 C           7.9626   -2.6336   20.1409 C.ar    1  UNL1        0.0187
     16 C           7.7947   -2.1069   18.7464 C.ar    1  UNL1        0.0013
     17 C           6.5316   -2.3851   17.9867 C.ar    1  UNL1        0.0001
     18 C           5.4364   -3.1900   18.6215 C.ar    1  UNL1        0.0013
     19 C           5.6043   -3.7166   20.0159 C.ar    1  UNL1        0.0187
     20 C           7.2879   -5.2359   28.9207 C.3     1  UNL1        0.1781
     21 N           6.5595   -5.8679   30.0696 N.pl3   1  UNL1       -0.2622
     22 H           5.7123   -6.3443   29.9130 H       1  UNL1        0.2588
     23 N           8.4744   -6.3482   31.7584 N.pl3   1  UNL1       -0.1298
     24 C           7.1219   -5.7740   31.4570 C.cat   1  UNL1        0.3769
     25 N           6.3317   -5.1059   32.5429 N.pl3   1  UNL1       -0.2892
     26 H           8.8435   -6.2865   32.6690 H       1  UNL1        0.3062
     27 H           6.7008   -5.0442   33.4535 H       1  UNL1        0.2546
     28 H           5.4440   -4.7290   32.3451 H       1  UNL1        0.2546
@<TRIPOS>BOND
     1    23    24    2
     2    24    25    1
     3    24    21    1
     4    21    20    1
     5    20     1    1
     6     1     2    1
     7     2     3    1
     8     3     4    1
     9     4     5    1
    10     5     6   ar
    11     6     7   ar
    12     7    11    1
    13    11    12    2
    14    11    13    2
    15    11    14    1
    16    14    15   ar
    17    15    16   ar
    18    16    17   ar
    19    17    18   ar
    20    18    19   ar
    21     7     8   ar
    22     8     9   ar
    23     9    10   ar
    24    10     1    1
    25    10     5   ar
    26    19    14   ar
    27    23    26    1
    28    25    27    1
    29    25    28    1
    30    21    22    1
@<TRIPOS>MOLECULE
*****
 28 30 0 0 0
SMALL
GASTEIGER

@<TRIPOS>ATOM
      1 C           3.6843   -2.6251   20.5549 C.3     1  UNL1        0.0614
      2 C           4.6408   -3.1641   21.5769 C.3     1  UNL1        0.0082
      3 C           4.7214   -2.5327   22.9352 C.3     1  UNL1        0.0051
      4 C           3.8455   -1.3624   23.2714 C.3     1  UNL1        0.0261
      5 C           2.8890   -0.8234   22.2494 C.ar    1  UNL1       -0.0247
      6 C           2.0131    0.3470   22.5855 C.ar    1  UNL1        0.0142
      7 C           1.0566    0.8859   21.5635 C.ar    1  UNL1        0.1100
      8 C           0.9760    0.2545   20.2052 C.ar    1  UNL1        0.0184
      9 C           1.8519   -0.9158   19.8690 C.ar    1  UNL1       -0.0031
     10 C           2.8084   -1.4548   20.8911 C.ar    1  UNL1       -0.0230
     11 S           0.1806    2.0563   21.8997 S.O2    1  UNL1        0.0274
     12 O          -0.7333    1.6980   20.7655 O.2     1  UNL1       -0.1642
     13 O           1.0945    2.4146   23.0338 O.2     1  UNL1       -0.1642
     14 C          -0.6953    3.2266   22.2358 C.ar    1  UNL1        0.1103
     15 C          -1.0592    4.2207   21.1731 C.ar    1  UNL1        0.0187
     16 C          -1.9352    5.3911   21.5092 C.ar    1  UNL1        0.0013
     17 C          -2.4473    5.5673   22.9080 C.ar    1  UNL1        0.0001
     18 C          -2.0833    4.5732   23.9708 C.ar    1  UNL1        0.0013
     19 C          -1.2074    3.4029   23.6346 C.ar    1  UNL1        0.0187
     20 C           3.6038   -3.2565   19.1966 C.3     1  UNL1        0.1781
     21 N           4.5964   -2.8831   18.1359 N.pl3   1  UNL1       -0.2622
     22 H           5.2594   -3.5426   17.8282 H       1  UNL1        0.2588
     23 N           3.7677   -1.2275   16.3133 N.pl3   1  UNL1       -0.1298
     24 C           4.5789   -1.5050   17.5441 C.cat   1  UNL1        0.3769
     25 N           5.3728   -0.4042   18.1831 N.pl3   1  UNL1       -0.2892
     26 H           3.7562   -0.3229   15.9248 H       1  UNL1        0.3062
     27 H           5.3613    0.5004   17.7946 H       1  UNL1        0.2546
     28 H           5.9052   -0.5863   18.9909 H       1  UNL1        0.2546
@<TRIPOS>BOND
     1    23    24    2
     2    24    25    1
     3    24    21    1
     4    21    20    1
     5    20     1    1
     6     1     2    1
     7     2     3    1
     8     3     4    1
     9     4     5    1
    10     5     6   ar
    11     6     7   ar
    12     7    11    1
    13    11    12    2
    14    11    13    2
    15    11    14    1
    16    14    15   ar
    17    15    16   ar
    18    16    17   ar
    19    17    18   ar
    20    18    19   ar
    21     7     8   ar
    22     8     9   ar
    23     9    10   ar
    24    10     1    1
    25    10     5   ar
    26    19    14   ar
    27    23    26    1
    28    25    27    1
    29    25    28    1
    30    21    22    1
@<TRIPOS>MOLECULE
*****
 28 30 0 0 0
SMALL
GASTEIGER

@<TRIPOS>ATOM
      1 C           7.7879   -5.0968   23.8457 C.3     1  UNL1        0.0614
      2 C           8.9584   -5.6957   23.1236 C.3     1  UNL1        0.0082
      3 C           9.1586   -5.4214   21.6626 C.3     1  UNL1        0.0051
      4 C           8.1884   -4.5482   20.9236 C.3     1  UNL1        0.0261
      5 C           7.0180   -3.9493   21.6457 C.ar    1  UNL1       -0.0247
      6 C           6.0477   -3.0760   20.9067 C.ar    1  UNL1        0.0142
      7 C           4.8773   -2.4772   21.6287 C.ar    1  UNL1        0.1100
      8 C           4.6770   -2.7515   23.0898 C.ar    1  UNL1        0.0184
      9 C           5.6472   -3.6247   23.8287 C.ar    1  UNL1       -0.0031
     10 C           6.8177   -4.2236   23.1067 C.ar    1  UNL1       -0.0230
     11 S           3.9070   -1.6039   20.8897 S.O2    1  UNL1        0.0274
     12 O           3.1545   -1.3613   22.1644 O.2     1  UNL1       -0.1642
     13 O           4.6594   -1.8464   19.6150 O.2     1  UNL1       -0.1642
     14 C           2.9367   -0.7307   20.1508 C.ar    1  UNL1        0.1103
     15 C           3.3764    0.0037   18.9190 C.ar    1  UNL1        0.0187
     16 C           2.4061    0.8770   18.1800 C.ar    1  UNL1        0.0013
     17 C           0.9962    1.0158   18.6729 C.ar    1  UNL1        0.0001
     18 C           0.5566    0.2814   19.9047 C.ar    1  UNL1        0.0013
     19 C           1.5268   -0.5918   20.6437 C.ar    1  UNL1        0.0187
     20 C           7.5877   -5.3712   25.3067 C.3     1  UNL1        0.1781
     21 N           8.2575   -6.5507   25.9470 N.pl3   1  UNL1       -0.2622
     22 H           9.1461   -6.8401   25.6375 H       1  UNL1        0.2588
     23 N           7.1969   -8.7304   26.8819 N.pl3   1  UNL1       -0.1298
     24 C           7.5734   -7.2893   27.0590 C.cat   1  UNL1        0.3769
     25 N           7.2658   -6.5867   28.3482 N.pl3   1  UNL1       -0.2892
     26 H           6.7479   -9.2151   27.6117 H       1  UNL1        0.3062
     27 H           6.8168   -7.0715   29.0780 H       1  UNL1        0.2546
     28 H           7.5129   -5.6409   28.4644 H       1  UNL1        0.2546
@<TRIPOS>BOND
     1    23    24    2
     2    24    25    1
     3    24    21    1
     4    21    20    1
     5    20     1    1
     6     1     2    1
     7     2     3    1
     8     3     4    1
     9     4     5    1
    10     5     6   ar
    11     6     7   ar
    12     7    11    1
    13    11    12    2
    14    11    13    2
    15    11    14    1
    16    14    15   ar
    17    15    16   ar
    18    16    17   ar
    19    17    18   ar
    20    18    19   ar
    21     7     8   ar
    22     8     9   ar
    23     9    10   ar
    24    10     1    1
    25    10     5   ar
    26    19    14   ar
    27    23    26    1
    28    25    27    1
    29    25    28    1
    30    21    22    1
