@<TRIPOS>MOLECULE
*****
 32 34 0 0 0
SMALL
GASTEIGER

@<TRIPOS>ATOM
      1 C          -7.8529  -19.6972   20.3199 C.2     1  UNL1        0.2534
      2 O          -8.0584  -19.2630   18.8989 O.2     1  UNL1       -0.2695
      3 N          -6.5788  -20.3812   20.7183 N.am    1  UNL1       -0.2965
      4 H          -6.4439  -20.6662   21.6510 H       1  UNL1        0.1501
      5 C         -14.2431  -17.8770   24.5004 C.3     1  UNL1        0.0537
      6 C         -12.8673  -18.3619   24.1511 C.ar    1  UNL1        0.0771
      7 N         -11.9666  -18.8991   25.2235 N.ar    1  UNL1       -0.1522
      8 N         -10.5908  -19.3840   24.8742 N.ar    1  UNL1       -0.1416
      9 C         -10.1157  -19.3317   23.4524 C.ar    1  UNL1        0.1333
     10 S          -8.8210  -19.7352   22.8112 S.2     1  UNL1       -0.0604
     11 C          -8.9216  -19.4475   21.3425 C.ar    1  UNL1        0.0971
     12 C         -10.2784  -18.8661   21.0759 C.ar    1  UNL1        0.0538
     13 N         -10.8048  -18.4324   19.7400 N.pl3   1  UNL1       -0.3564
     14 C         -11.0164  -18.7945   22.3800 C.ar    1  UNL1        0.0363
     15 C         -12.3922  -18.3097   22.7293 C.ar    1  UNL1       -0.0033
     16 C         -13.2929  -17.7725   21.6568 C.3     1  UNL1        0.0324
     17 H         -10.2417  -18.5194   18.9372 H       1  UNL1        0.1424
     18 H         -11.7134  -18.0607   19.6660 H       1  UNL1        0.1424
     19 C          -5.5102  -20.6310   19.6958 C.3     1  UNL1        0.1166
     20 C          -4.1854  -19.9367   19.8104 C.ar    1  UNL1       -0.0025
     21 C          -3.1611  -20.4324   20.7876 C.ar    1  UNL1       -0.0013
     22 C          -1.8364  -19.7382   20.9022 C.ar    1  UNL1        0.0184
     23 C          -1.5360  -18.5483   20.0396 C.ar    1  UNL1        0.1142
     24 C          -2.5604  -18.0527   19.0624 C.ar    1  UNL1        0.0184
     25 C          -3.8851  -18.7469   18.9478 C.ar    1  UNL1       -0.0013
     26 S          -0.2112  -17.8541   20.1543 S.O2    1  UNL1        0.0920
     27 O           0.4780  -19.0853   19.6454 O.2     1  UNL1       -0.1612
     28 O          -0.9005  -16.6228   20.6632 O.2     1  UNL1       -0.1612
     29 C           1.1134  -17.1599   20.2690 C.3     1  UNL1        0.5262
     30 F           1.7329  -18.4264   20.7810 F       1  UNL1       -0.1500
     31 F           0.4940  -15.8934   19.7570 F       1  UNL1       -0.1500
     32 F           2.4382  -16.4656   20.3836 F       1  UNL1       -0.1500
@<TRIPOS>BOND
     1     5     6    1
     2     6     7   ar
     3     7     8   ar
     4     8     9   ar
     5     9    10   ar
     6    10    11   ar
     7    11     1    1
     8     1     2    2
     9     1     3   am
    10     3    19    1
    11    19    20    1
    12    20    21   ar
    13    21    22   ar
    14    22    23   ar
    15    23    26    1
    16    26    27    2
    17    26    28    2
    18    26    29    1
    19    29    30    1
    20    29    31    1
    21    29    32    1
    22    23    24   ar
    23    24    25   ar
    24    11    12   ar
    25    12    13    1
    26    12    14   ar
    27    14    15   ar
    28    15    16    1
    29    15     6   ar
    30    14     9   ar
    31    25    20   ar
    32     3     4    1
    33    13    17    1
    34    13    18    1
@<TRIPOS>MOLECULE
*****
 32 34 0 0 0
SMALL
GASTEIGER

@<TRIPOS>ATOM
      1 C           0.3448    2.8215   23.7852 C.2     1  UNL1        0.2534
      2 O           1.3720    3.8790   24.0616 O.2     1  UNL1       -0.2695
      3 N           0.7772    1.4430   23.3822 N.am    1  UNL1       -0.2965
      4 H           0.1030    0.7489   23.2008 H       1  UNL1        0.1501
      5 C          -7.3084    4.3555   22.9484 C.3     1  UNL1        0.0537
      6 C          -5.9670    4.1352   23.5825 C.ar    1  UNL1        0.0771
      7 N          -5.8124    4.2509   25.0700 N.ar    1  UNL1       -0.1522
      8 N          -4.4710    4.0306   25.7040 N.ar    1  UNL1       -0.1416
      9 C          -3.2841    3.6947   24.8506 C.ar    1  UNL1        0.1333
     10 S          -1.8480    3.4250   25.1898 S.2     1  UNL1       -0.0604
     11 C          -1.1150    3.1427   23.9119 C.ar    1  UNL1        0.0971
     12 C          -2.0981    3.2378   22.7829 C.ar    1  UNL1        0.0538
     13 N          -1.7940    3.0286   21.3290 N.pl3   1  UNL1       -0.3564
     14 C          -3.4386    3.5790   23.3631 C.ar    1  UNL1        0.0363
     15 C          -4.7801    3.7993   22.7291 C.ar    1  UNL1       -0.0033
     16 C          -4.9346    3.6836   21.2415 C.3     1  UNL1        0.0324
     17 H          -0.8779    2.8066   21.0447 H       1  UNL1        0.1424
     18 H          -2.5104    3.1132   20.6591 H       1  UNL1        0.1424
     19 C           2.2369    1.1219   23.2556 C.3     1  UNL1        0.1166
     20 C           2.6793   -0.0392   22.4151 C.ar    1  UNL1       -0.0025
     21 C           2.1991   -0.1666   20.9998 C.ar    1  UNL1       -0.0013
     22 C           2.6416   -1.3276   20.1594 C.ar    1  UNL1        0.0184
     23 C           3.5642   -2.3612   20.7344 C.ar    1  UNL1        0.1142
     24 C           4.0444   -2.2337   22.1496 C.ar    1  UNL1        0.0184
     25 C           3.6020   -1.0727   22.9900 C.ar    1  UNL1       -0.0013
     26 S           4.0066   -3.5222   19.8939 S.O2    1  UNL1        0.0920
     27 O           3.6776   -2.7485   18.6517 O.2     1  UNL1       -0.1612
     28 O           4.3357   -4.2960   21.1361 O.2     1  UNL1       -0.1612
     29 C           4.4491   -4.6832   19.0535 C.3     1  UNL1        0.5262
     30 F           5.3714   -3.7794   18.2903 F       1  UNL1       -0.1500
     31 F           3.5268   -5.5871   19.8167 F       1  UNL1       -0.1500
     32 F           4.8915   -5.8443   18.2131 F       1  UNL1       -0.1500
@<TRIPOS>BOND
     1     5     6    1
     2     6     7   ar
     3     7     8   ar
     4     8     9   ar
     5     9    10   ar
     6    10    11   ar
     7    11     1    1
     8     1     2    2
     9     1     3   am
    10     3    19    1
    11    19    20    1
    12    20    21   ar
    13    21    22   ar
    14    22    23   ar
    15    23    26    1
    16    26    27    2
    17    26    28    2
    18    26    29    1
    19    29    30    1
    20    29    31    1
    21    29    32    1
    22    23    24   ar
    23    24    25   ar
    24    11    12   ar
    25    12    13    1
    26    12    14   ar
    27    14    15   ar
    28    15    16    1
    29    15     6   ar
    30    14     9   ar
    31    25    20   ar
    32     3     4    1
    33    13    17    1
    34    13    18    1
@<TRIPOS>MOLECULE
*****
 32 34 0 0 0
SMALL
GASTEIGER

@<TRIPOS>ATOM
      1 C          -0.8448    3.3845   19.9420 C.2     1  UNL1        0.2534
      2 O          -0.9982    3.5794   18.4627 O.2     1  UNL1       -0.2695
      3 N           0.4883    3.0029   20.5140 N.am    1  UNL1       -0.2965
      4 H           0.5890    2.8750   21.4849 H       1  UNL1        0.1501
      5 C          -7.7984    4.5028   23.4091 C.3     1  UNL1        0.0537
      6 C          -6.3301    4.2615   23.2204 C.ar    1  UNL1        0.0771
      7 N          -5.4366    4.1021   24.4147 N.ar    1  UNL1       -0.1522
      8 N          -3.9683    3.8608   24.2260 N.ar    1  UNL1       -0.1416
      9 C          -3.3933    3.7788   22.8430 C.ar    1  UNL1        0.1333
     10 S          -1.9953    3.5520   22.3491 S.2     1  UNL1       -0.0604
     11 C          -2.0246    3.5712   20.8495 C.ar    1  UNL1        0.0971
     12 C          -3.4408    3.8098   20.4166 C.ar    1  UNL1        0.0538
     13 N          -3.9260    3.9037   19.0004 N.pl3   1  UNL1       -0.3564
     14 C          -4.2867    3.9381   21.6487 C.ar    1  UNL1        0.0363
     15 C          -5.7551    4.1795   21.8374 C.ar    1  UNL1       -0.0033
     16 C          -6.6485    4.3389   20.6430 C.3     1  UNL1        0.0324
     17 H          -3.2905    3.8056   18.2548 H       1  UNL1        0.1424
     18 H          -4.8798    4.0634   18.8164 H       1  UNL1        0.1424
     19 C           1.6680    2.8162   19.6066 C.3     1  UNL1        0.1166
     20 C           2.2478    1.4479   19.4021 C.ar    1  UNL1       -0.0025
     21 C           1.8258    0.3143   20.2890 C.ar    1  UNL1       -0.0013
     22 C           2.4057   -1.0539   20.0845 C.ar    1  UNL1        0.0184
     23 C           3.4075   -1.2884   18.9931 C.ar    1  UNL1        0.1142
     24 C           3.8295   -0.1547   18.1061 C.ar    1  UNL1        0.0184
     25 C           3.2497    1.2134   18.3106 C.ar    1  UNL1       -0.0013
     26 S           3.9874   -2.6566   18.7886 S.O2    1  UNL1        0.0920
     27 O           4.7195   -2.1651   17.5752 O.2     1  UNL1       -0.1612
     28 O           3.2552   -3.1483   20.0020 O.2     1  UNL1       -0.1612
     29 C           4.5672   -4.0248   18.5841 C.3     1  UNL1        0.5262
     30 F           5.9121   -3.4154   18.3195 F       1  UNL1       -0.1500
     31 F           3.2224   -4.6342   18.8487 F       1  UNL1       -0.1500
     32 F           5.1469   -5.3931   18.3797 F       1  UNL1       -0.1500
@<TRIPOS>BOND
     1     5     6    1
     2     6     7   ar
     3     7     8   ar
     4     8     9   ar
     5     9    10   ar
     6    10    11   ar
     7    11     1    1
     8     1     2    2
     9     1     3   am
    10     3    19    1
    11    19    20    1
    12    20    21   ar
    13    21    22   ar
    14    22    23   ar
    15    23    26    1
    16    26    27    2
    17    26    28    2
    18    26    29    1
    19    29    30    1
    20    29    31    1
    21    29    32    1
    22    23    24   ar
    23    24    25   ar
    24    11    12   ar
    25    12    13    1
    26    12    14   ar
    27    14    15   ar
    28    15    16    1
    29    15     6   ar
    30    14     9   ar
    31    25    20   ar
    32     3     4    1
    33    13    17    1
    34    13    18    1
@<TRIPOS>MOLECULE
*****
 32 34 0 0 0
SMALL
GASTEIGER

@<TRIPOS>ATOM
      1 C          -0.2764    3.3220   21.1933 C.2     1  UNL1        0.2534
      2 O           0.6150    3.3556   22.3992 O.2     1  UNL1       -0.2695
      3 N           0.3094    3.0774   19.8342 N.am    1  UNL1       -0.2965
      4 H          -0.2757    3.0554   19.0427 H       1  UNL1        0.1501
      5 C          -7.7180    4.3492   23.4715 C.3     1  UNL1        0.0537
      6 C          -6.5120    4.1949   22.5931 C.ar    1  UNL1        0.0771
      7 N          -6.6585    4.2519   21.1013 N.ar    1  UNL1       -0.1522
      8 N          -5.4524    4.0977   20.2229 N.ar    1  UNL1       -0.1416
      9 C          -4.1000    3.8864   20.8361 C.ar    1  UNL1        0.1333
     10 S          -2.7404    3.7033   20.2296 S.2     1  UNL1       -0.0604
     11 C          -1.7536    3.5331   21.3464 C.ar    1  UNL1        0.0971
     12 C          -2.5033    3.6110   22.6432 C.ar    1  UNL1        0.0538
     13 N          -1.9076    3.4916   24.0147 N.pl3   1  UNL1       -0.3564
     14 C          -3.9535    3.8294   22.3278 C.ar    1  UNL1        0.0363
     15 C          -5.1595    3.9837   23.2063 C.ar    1  UNL1       -0.0033
     16 C          -5.0130    3.9266   24.6981 C.3     1  UNL1        0.0324
     17 H          -0.9393    3.3483   24.1200 H       1  UNL1        0.1424
     18 H          -2.4849    3.5565   24.8095 H       1  UNL1        0.1424
     19 C           1.7865    2.8664   19.6812 C.3     1  UNL1        0.1166
     20 C           2.3284    1.4842   19.4660 C.ar    1  UNL1       -0.0025
     21 C           1.9399    0.3732   20.3958 C.ar    1  UNL1       -0.0013
     22 C           2.4818   -1.0088   20.1807 C.ar    1  UNL1        0.0184
     23 C           3.4121   -1.2798   19.0356 C.ar    1  UNL1        0.1142
     24 C           3.8005   -0.1688   18.1058 C.ar    1  UNL1        0.0184
     25 C           3.2587    1.2132   18.3210 C.ar    1  UNL1       -0.0013
     26 S           3.9539   -2.6619   18.8205 S.O2    1  UNL1        0.0920
     27 O           3.2229   -3.1385   20.0405 O.2     1  UNL1       -0.1612
     28 O           4.6850   -2.1854   17.6004 O.2     1  UNL1       -0.1612
     29 C           4.4958   -4.0440   18.6053 C.3     1  UNL1        0.5262
     30 F           3.1284   -4.6160   18.8359 F       1  UNL1       -0.1500
     31 F           5.8631   -3.4720   18.3747 F       1  UNL1       -0.1500
     32 F           5.0377   -5.4260   18.3901 F       1  UNL1       -0.1500
@<TRIPOS>BOND
     1     5     6    1
     2     6     7   ar
     3     7     8   ar
     4     8     9   ar
     5     9    10   ar
     6    10    11   ar
     7    11     1    1
     8     1     2    2
     9     1     3   am
    10     3    19    1
    11    19    20    1
    12    20    21   ar
    13    21    22   ar
    14    22    23   ar
    15    23    26    1
    16    26    27    2
    17    26    28    2
    18    26    29    1
    19    29    30    1
    20    29    31    1
    21    29    32    1
    22    23    24   ar
    23    24    25   ar
    24    11    12   ar
    25    12    13    1
    26    12    14   ar
    27    14    15   ar
    28    15    16    1
    29    15     6   ar
    30    14     9   ar
    31    25    20   ar
    32     3     4    1
    33    13    17    1
    34    13    18    1
@<TRIPOS>MOLECULE
*****
 32 34 0 0 0
SMALL
GASTEIGER

@<TRIPOS>ATOM
      1 C           6.7930   -4.6580   24.9520 C.2     1  UNL1        0.2534
      2 O           7.8194   -5.4855   24.2367 O.2     1  UNL1       -0.2695
      3 N           5.7810   -3.8761   24.1681 N.am    1  UNL1       -0.2965
      4 H           5.1074   -3.3330   24.6376 H       1  UNL1        0.1501
      5 C           6.5442   -2.9344   32.6065 C.3     1  UNL1        0.0537
      6 C           6.6442   -3.7185   31.3317 C.ar    1  UNL1        0.0771
      7 N           6.8194   -5.2074   31.3787 N.ar    1  UNL1       -0.1522
      8 N           6.9194   -5.9915   30.1038 N.ar    1  UNL1       -0.1416
      9 C           6.8442   -5.2865   28.7819 C.ar    1  UNL1        0.1333
     10 S           6.9120   -5.7901   27.3706 S.2     1  UNL1       -0.0604
     11 C           6.7787   -4.6123   26.4513 C.ar    1  UNL1        0.0971
     12 C           6.6286   -3.3808   27.2945 C.ar    1  UNL1        0.0538
     13 N           6.4664   -1.9788   26.7865 N.pl3   1  UNL1       -0.3564
     14 C           6.6691   -3.7976   28.7349 C.ar    1  UNL1        0.0363
     15 C           6.5691   -3.0135   30.0098 C.ar    1  UNL1       -0.0033
     16 C           6.3939   -1.5245   29.9627 C.3     1  UNL1        0.0324
     17 H           6.4517   -1.8049   25.8176 H       1  UNL1        0.1424
     18 H           6.3747   -1.2325   27.4220 H       1  UNL1        0.1424
     19 C           5.7954   -3.9218   22.6689 C.3     1  UNL1        0.1166
     20 C           4.8894   -3.0214   21.8824 C.ar    1  UNL1       -0.0025
     21 C           4.8582   -3.1112   20.3854 C.ar    1  UNL1       -0.0013
     22 C           3.9522   -2.2108   19.5989 C.ar    1  UNL1        0.0184
     23 C           3.0776   -1.2207   20.3094 C.ar    1  UNL1        0.1142
     24 C           3.1089   -1.1310   21.8064 C.ar    1  UNL1        0.0184
     25 C           4.0148   -2.0314   22.5928 C.ar    1  UNL1       -0.0013
     26 S           2.1717   -0.3203   19.5228 S.O2    1  UNL1        0.0920
     27 O           1.0560   -0.6023   20.4850 O.2     1  UNL1       -0.1612
     28 O           3.2873   -0.0383   18.5606 O.2     1  UNL1       -0.1612
     29 C           1.2658    0.5801   18.7363 C.3     1  UNL1        0.5262
     30 F           0.1525    0.3047   19.7032 F       1  UNL1       -0.1500
     31 F           2.3790    0.8554   17.7694 F       1  UNL1       -0.1500
     32 F           0.3599    1.4805   17.9497 F       1  UNL1       -0.1500
@<TRIPOS>BOND
     1     5     6    1
     2     6     7   ar
     3     7     8   ar
     4     8     9   ar
     5     9    10   ar
     6    10    11   ar
     7    11     1    1
     8     1     2    2
     9     1     3   am
    10     3    19    1
    11    19    20    1
    12    20    21   ar
    13    21    22   ar
    14    22    23   ar
    15    23    26    1
    16    26    27    2
    17    26    28    2
    18    26    29    1
    19    29    30    1
    20    29    31    1
    21    29    32    1
    22    23    24   ar
    23    24    25   ar
    24    11    12   ar
    25    12    13    1
    26    12    14   ar
    27    14    15   ar
    28    15    16    1
    29    15     6   ar
    30    14     9   ar
    31    25    20   ar
    32     3     4    1
    33    13    17    1
    34    13    18    1
@<TRIPOS>MOLECULE
*****
 32 34 0 0 0
SMALL
GASTEIGER

@<TRIPOS>ATOM
      1 C         -16.9018    0.0428   20.4990 C.2     1  UNL1        0.2534
      2 O         -18.2586   -0.5656   20.6959 O.2     1  UNL1       -0.2695
      3 N         -15.7428   -0.8217   20.0998 N.am    1  UNL1       -0.2965
      4 H         -14.8523   -0.4223   19.9706 H       1  UNL1        0.1501
      5 C         -16.7311    7.5535   22.7759 C.3     1  UNL1        0.0537
      6 C         -16.4795    6.3060   21.9820 C.ar    1  UNL1        0.0771
      7 N         -15.6336    6.3623   20.7446 N.ar    1  UNL1       -0.1522
      8 N         -15.3820    5.1148   19.9506 N.ar    1  UNL1       -0.1416
      9 C         -15.9764    3.8109   20.3941 C.ar    1  UNL1        0.1333
     10 S         -15.9032    2.4274   19.8193 S.2     1  UNL1       -0.0604
     11 C         -16.7039    1.5159   20.7014 C.ar    1  UNL1        0.0971
     12 C         -17.2719    2.3362   21.8214 C.ar    1  UNL1        0.0538
     13 N         -18.1376    1.8274   22.9358 N.pl3   1  UNL1       -0.3564
     14 C         -16.8223    3.7546   21.6315 C.ar    1  UNL1        0.0363
     15 C         -17.0739    5.0021   22.4254 C.ar    1  UNL1       -0.0033
     16 C         -17.9198    4.9458   23.6629 C.3     1  UNL1        0.0324
     17 H         -18.3801    0.8741   22.9747 H       1  UNL1        0.1424
     18 H         -18.4633    2.4469   23.6282 H       1  UNL1        0.1424
     19 C         -15.9408   -2.2947   19.8974 C.3     1  UNL1        0.1166
     20 C         -14.7556   -3.1875   19.6771 C.ar    1  UNL1       -0.0025
     21 C         -14.8447   -4.6477   20.0083 C.ar    1  UNL1       -0.0013
     22 C         -13.6595   -5.5403   19.7880 C.ar    1  UNL1        0.0184
     23 C         -12.3853   -4.9727   19.2364 C.ar    1  UNL1        0.1142
     24 C         -12.2962   -3.5125   18.9052 C.ar    1  UNL1        0.0184
     25 C         -13.4814   -2.6199   19.1255 C.ar    1  UNL1       -0.0013
     26 S         -11.2002   -5.8655   19.0161 S.O2    1  UNL1        0.0920
     27 O         -10.2933   -4.6714   19.0556 O.2     1  UNL1       -0.1612
     28 O         -12.1070   -7.0597   18.9766 O.2     1  UNL1       -0.1612
     29 C         -10.0151   -6.7582   18.7958 C.3     1  UNL1        0.5262
     30 F         -10.8423   -7.6365   17.9045 F       1  UNL1       -0.1500
     31 F          -9.1878   -5.8800   19.6870 F       1  UNL1       -0.1500
     32 F          -8.8299   -7.6509   18.5755 F       1  UNL1       -0.1500
@<TRIPOS>BOND
     1     5     6    1
     2     6     7   ar
     3     7     8   ar
     4     8     9   ar
     5     9    10   ar
     6    10    11   ar
     7    11     1    1
     8     1     2    2
     9     1     3   am
    10     3    19    1
    11    19    20    1
    12    20    21   ar
    13    21    22   ar
    14    22    23   ar
    15    23    26    1
    16    26    27    2
    17    26    28    2
    18    26    29    1
    19    29    30    1
    20    29    31    1
    21    29    32    1
    22    23    24   ar
    23    24    25   ar
    24    11    12   ar
    25    12    13    1
    26    12    14   ar
    27    14    15   ar
    28    15    16    1
    29    15     6   ar
    30    14     9   ar
    31    25    20   ar
    32     3     4    1
    33    13    17    1
    34    13    18    1
@<TRIPOS>MOLECULE
*****
 32 34 0 0 0
SMALL
GASTEIGER

@<TRIPOS>ATOM
      1 C           7.5974   -4.7375   22.8446 C.2     1  UNL1        0.2534
      2 O           8.2167   -6.0942   22.6838 O.2     1  UNL1       -0.2695
      3 N           7.4188   -4.1521   24.2140 N.am    1  UNL1       -0.2965
      4 H           7.0123   -3.2617   24.3195 H       1  UNL1        0.1501
      5 C           3.9110   -0.8484   17.1079 C.3     1  UNL1        0.0537
      6 C           5.0037   -1.4801   17.9185 C.ar    1  UNL1        0.0771
      7 N           6.4255   -1.4078   17.4461 N.ar    1  UNL1       -0.1522
      8 N           7.5182   -2.0395   18.2566 N.ar    1  UNL1       -0.1416
      9 C           7.1891   -2.7435   19.5396 C.ar    1  UNL1        0.1333
     10 S           8.0476   -3.4545   20.5432 S.2     1  UNL1       -0.0604
     11 C           7.1565   -3.9664   21.6358 C.ar    1  UNL1        0.0971
     12 C           5.7471   -3.5716   21.3076 C.ar    1  UNL1        0.0538
     13 N           4.5311   -3.8787   22.1303 N.pl3   1  UNL1       -0.3564
     14 C           5.7673   -2.8158   20.0120 C.ar    1  UNL1        0.0363
     15 C           4.6746   -2.1841   19.2014 C.ar    1  UNL1       -0.0033
     16 C           3.2527   -2.2565   19.6739 C.3     1  UNL1        0.0324
     17 H           4.6200   -4.3836   22.9708 H       1  UNL1        0.1424
     18 H           3.6440   -3.5753   21.8299 H       1  UNL1        0.1424
     19 C           7.8597   -4.9233   25.4226 C.3     1  UNL1        0.1166
     20 C           7.4350   -4.4799   26.7912 C.ar    1  UNL1       -0.0025
     21 C           7.3736   -3.0178   27.1205 C.ar    1  UNL1       -0.0013
     22 C           6.9489   -2.5745   28.4891 C.ar    1  UNL1        0.0184
     23 C           6.5857   -3.5932   29.5284 C.ar    1  UNL1        0.1142
     24 C           6.6471   -5.0553   29.1991 C.ar    1  UNL1        0.0184
     25 C           7.0718   -5.4986   27.8306 C.ar    1  UNL1       -0.0013
     26 S           6.1610   -3.1498   30.8971 S.O2    1  UNL1        0.0920
     27 O           5.7859   -1.8063   30.3455 O.2     1  UNL1       -0.1612
     28 O           6.5360   -4.4934   31.4487 O.2     1  UNL1       -0.1612
     29 C           5.7363   -2.7065   32.2656 C.3     1  UNL1        0.5262
     30 F           6.1900   -4.0194   32.8318 F       1  UNL1       -0.1500
     31 F           5.2825   -1.3937   31.6996 F       1  UNL1       -0.1500
     32 F           5.3116   -2.2631   33.6343 F       1  UNL1       -0.1500
@<TRIPOS>BOND
     1     5     6    1
     2     6     7   ar
     3     7     8   ar
     4     8     9   ar
     5     9    10   ar
     6    10    11   ar
     7    11     1    1
     8     1     2    2
     9     1     3   am
    10     3    19    1
    11    19    20    1
    12    20    21   ar
    13    21    22   ar
    14    22    23   ar
    15    23    26    1
    16    26    27    2
    17    26    28    2
    18    26    29    1
    19    29    30    1
    20    29    31    1
    21    29    32    1
    22    23    24   ar
    23    24    25   ar
    24    11    12   ar
    25    12    13    1
    26    12    14   ar
    27    14    15   ar
    28    15    16    1
    29    15     6   ar
    30    14     9   ar
    31    25    20   ar
    32     3     4    1
    33    13    17    1
    34    13    18    1
@<TRIPOS>MOLECULE
*****
 32 34 0 0 0
SMALL
GASTEIGER

@<TRIPOS>ATOM
      1 C          -8.1077  -20.0442   19.9353 C.2     1  UNL1        0.2534
      2 O          -8.1189  -20.3649   18.4700 O.2     1  UNL1       -0.2695
      3 N          -6.8774  -20.3084   20.7515 N.am    1  UNL1       -0.2965
      4 H          -6.8701  -20.0980   21.7133 H       1  UNL1        0.1501
      5 C         -13.9591  -17.6365   24.5816 C.3     1  UNL1        0.0537
      6 C         -13.1092  -17.8444   23.3632 C.ar    1  UNL1        0.0771
      7 N         -13.5213  -17.2472   22.0505 N.ar    1  UNL1       -0.1522
      8 N         -12.6714  -17.4551   20.8321 N.ar    1  UNL1       -0.1416
      9 C         -11.4095  -18.2603   20.9265 C.ar    1  UNL1        0.1333
     10 S         -10.3772  -18.6321   19.9036 S.2     1  UNL1       -0.0604
     11 C          -9.3271  -19.4592   20.5843 C.ar    1  UNL1        0.0971
     12 C          -9.7103  -19.5986   22.0277 C.ar    1  UNL1        0.0538
     13 N          -8.9416  -20.3474   23.0757 N.pl3   1  UNL1       -0.3564
     14 C         -10.9973  -18.8576   22.2392 C.ar    1  UNL1        0.0363
     15 C         -11.8472  -18.6497   23.4576 C.ar    1  UNL1       -0.0033
     16 C         -11.4350  -19.2470   24.7704 C.3     1  UNL1        0.0324
     17 H          -8.1026  -20.8045   22.8383 H       1  UNL1        0.1424
     18 H          -9.2761  -20.3818   24.0010 H       1  UNL1        0.1424
     19 C          -5.6582  -20.8934   20.1025 C.3     1  UNL1        0.1166
     20 C          -4.3605  -20.1414   20.1291 C.ar    1  UNL1       -0.0025
     21 C          -3.3447  -20.4358   21.1928 C.ar    1  UNL1       -0.0013
     22 C          -2.0471  -19.6838   21.2194 C.ar    1  UNL1        0.0184
     23 C          -1.7653  -18.6374   20.1822 C.ar    1  UNL1        0.1142
     24 C          -2.7811  -18.3431   19.1185 C.ar    1  UNL1        0.0184
     25 C          -4.0787  -19.0950   19.0920 C.ar    1  UNL1       -0.0013
     26 S          -0.4676  -17.8855   20.2088 S.O2    1  UNL1        0.0920
     27 O          -1.1784  -16.6777   20.7435 O.2     1  UNL1       -0.1612
     28 O           0.2433  -19.0933   19.6741 O.2     1  UNL1       -0.1612
     29 C           0.8300  -17.1335   20.2354 C.3     1  UNL1        0.5262
     30 F           0.1074  -15.8732   19.8616 F       1  UNL1       -0.1500
     31 F           1.5526  -18.3937   20.6091 F       1  UNL1       -0.1500
     32 F           2.1277  -16.3816   20.2619 F       1  UNL1       -0.1500
@<TRIPOS>BOND
     1     5     6    1
     2     6     7   ar
     3     7     8   ar
     4     8     9   ar
     5     9    10   ar
     6    10    11   ar
     7    11     1    1
     8     1     2    2
     9     1     3   am
    10     3    19    1
    11    19    20    1
    12    20    21   ar
    13    21    22   ar
    14    22    23   ar
    15    23    26    1
    16    26    27    2
    17    26    28    2
    18    26    29    1
    19    29    30    1
    20    29    31    1
    21    29    32    1
    22    23    24   ar
    23    24    25   ar
    24    11    12   ar
    25    12    13    1
    26    12    14   ar
    27    14    15   ar
    28    15    16    1
    29    15     6   ar
    30    14     9   ar
    31    25    20   ar
    32     3     4    1
    33    13    17    1
    34    13    18    1
@<TRIPOS>MOLECULE
*****
 32 34 0 0 0
SMALL
GASTEIGER

@<TRIPOS>ATOM
      1 C          -1.0142    3.8017   18.5379 C.2     1  UNL1        0.2534
      2 O          -0.9089    3.5410   17.0645 O.2     1  UNL1       -0.2695
      3 N           0.2239    3.8340   19.3842 N.am    1  UNL1       -0.2965
      4 H           0.1548    4.0051   20.3512 H       1  UNL1        0.1501
      5 C          -7.4481    4.2894   23.0091 C.3     1  UNL1        0.0537
      6 C          -6.5181    4.4344   21.8411 C.ar    1  UNL1        0.0771
      7 N          -6.9848    5.1202   20.5914 N.ar    1  UNL1       -0.1522
      8 N          -6.0549    5.2653   19.4235 N.ar    1  UNL1       -0.1416
      9 C          -4.6581    4.7246   19.5052 C.ar    1  UNL1        0.1333
     10 S          -3.5248    4.7192   18.5227 S.2     1  UNL1       -0.0604
     11 C          -2.3576    4.0301   19.1651 C.ar    1  UNL1        0.0971
     12 C          -2.7695    3.6095   20.5447 C.ar    1  UNL1        0.0538
     13 N          -1.9105    2.8867   21.5395 N.pl3   1  UNL1       -0.3564
     14 C          -4.1914    4.0388   20.7549 C.ar    1  UNL1        0.0363
     15 C          -5.1214    3.8937   21.9229 C.ar    1  UNL1       -0.0033
     16 C          -4.6546    3.2078   23.1726 C.3     1  UNL1        0.0324
     17 H          -0.9844    2.6465   21.3074 H       1  UNL1        0.1424
     18 H          -2.2728    2.6525   22.4244 H       1  UNL1        0.1424
     19 C           1.5671    3.6055   18.7570 C.3     1  UNL1        0.1166
     20 C           2.1491    2.2237   18.7130 C.ar    1  UNL1       -0.0025
     21 C           3.5704    2.0220   18.2781 C.ar    1  UNL1       -0.0013
     22 C           4.1523    0.6402   18.2341 C.ar    1  UNL1        0.0184
     23 C           3.3130   -0.5399   18.6250 C.ar    1  UNL1        0.1142
     24 C           1.8917   -0.3382   19.0600 C.ar    1  UNL1        0.0184
     25 C           1.3097    1.0436   19.1039 C.ar    1  UNL1       -0.0013
     26 S           3.8949   -1.9217   18.5810 S.O2    1  UNL1        0.0920
     27 O           3.2451   -2.2374   19.8955 O.2     1  UNL1       -0.1612
     28 O           4.5449   -1.6061   17.2664 O.2     1  UNL1       -0.1612
     29 C           4.4769   -3.3035   18.5370 C.3     1  UNL1        0.5262
     30 F           5.8047   -2.7316   18.1367 F       1  UNL1       -0.1500
     31 F           3.1493   -3.8754   18.9372 F       1  UNL1       -0.1500
     32 F           5.0589   -4.6854   18.4929 F       1  UNL1       -0.1500
@<TRIPOS>BOND
     1     5     6    1
     2     6     7   ar
     3     7     8   ar
     4     8     9   ar
     5     9    10   ar
     6    10    11   ar
     7    11     1    1
     8     1     2    2
     9     1     3   am
    10     3    19    1
    11    19    20    1
    12    20    21   ar
    13    21    22   ar
    14    22    23   ar
    15    23    26    1
    16    26    27    2
    17    26    28    2
    18    26    29    1
    19    29    30    1
    20    29    31    1
    21    29    32    1
    22    23    24   ar
    23    24    25   ar
    24    11    12   ar
    25    12    13    1
    26    12    14   ar
    27    14    15   ar
    28    15    16    1
    29    15     6   ar
    30    14     9   ar
    31    25    20   ar
    32     3     4    1
    33    13    17    1
    34    13    18    1
