@<TRIPOS>MOLECULE
*****
 24 26 0 0 0
SMALL
GASTEIGER

@<TRIPOS>ATOM
      1 C          -9.2478  -17.9306   23.4176 C.3     1  UNL1        0.1205
      2 C          -8.6662  -17.1149   24.5340 C.ar    1  UNL1       -0.0000
      3 C          -7.6924  -16.0151   24.2308 C.ar    1  UNL1       -0.0015
      4 C          -7.1108  -15.1993   25.3472 C.ar    1  UNL1        0.0111
      5 C          -7.5031  -15.4835   26.7669 C.ar    1  UNL1        0.0577
      6 CL         -6.9215  -14.6678   27.8832 Cl      1  UNL1       -0.0822
      7 C          -8.4769  -16.5833   27.0701 C.ar    1  UNL1        0.0111
      8 C          -9.0585  -17.3991   25.9537 C.ar    1  UNL1       -0.0015
      9 C         -10.6062  -17.5985   22.8749 C.ar    1  UNL1       -0.0001
     10 C         -10.7358  -16.7406   21.6514 C.ar    1  UNL1       -0.0023
     11 C         -12.0942  -16.4086   21.1087 C.ar    1  UNL1       -0.0003
     12 C         -13.3230  -16.9345   21.7896 C.ar    1  UNL1       -0.0000
     13 C         -13.1934  -17.7924   23.0132 C.ar    1  UNL1       -0.0003
     14 C         -11.8350  -18.1244   23.5558 C.ar    1  UNL1       -0.0023
     15 C          -8.6748  -20.4644   23.3800 C.3     1  UNL1        0.1155
     16 N          -8.4710  -19.0784   22.8439 N.am    1  UNL1       -0.2703
     17 C          -7.4904  -18.8402   21.7340 C.2     1  UNL1        0.2493
     18 O          -7.2867  -17.4542   21.1979 O.2     1  UNL1       -0.2727
     19 C          -6.7137  -19.9880   21.1603 C.3     1  UNL1        0.1932
     20 N          -5.2143  -19.9744   21.2022 N.ar    1  UNL1       -0.2992
     21 C          -4.3679  -19.3621   22.2786 C.ar    1  UNL1        0.0984
     22 C          -2.9286  -19.5800   21.9168 C.ar    1  UNL1        0.1193
     23 N          -2.8855  -20.3270   20.6167 N.ar    1  UNL1       -0.2223
     24 C          -4.2981  -20.5708   20.1751 C.ar    1  UNL1        0.1790
@<TRIPOS>BOND
     1    15    16    1
     2    16    17   am
     3    17    18    2
     4    17    19    1
     5    19    20    1
     6    20    21   ar
     7    21    22   ar
     8    22    23   ar
     9    23    24   ar
    10    16     1    1
    11     1     9    1
    12     9    10   ar
    13    10    11   ar
    14    11    12   ar
    15    12    13   ar
    16    13    14   ar
    17     1     2    1
    18     2     3   ar
    19     3     4   ar
    20     4     5   ar
    21     5     6    1
    22     5     7   ar
    23     7     8   ar
    24    24    20   ar
    25    14     9   ar
    26     8     2   ar
@<TRIPOS>MOLECULE
*****
 24 26 0 0 0
SMALL
GASTEIGER

@<TRIPOS>ATOM
      1 C          -8.8823  -17.0103   23.7292 C.3     1  UNL1        0.1205
      2 C         -10.3442  -17.3416   23.7829 C.ar    1  UNL1       -0.0000
      3 C         -10.8232  -18.4879   24.6235 C.ar    1  UNL1       -0.0015
      4 C         -12.2852  -18.8191   24.6771 C.ar    1  UNL1        0.0111
      5 C         -13.2682  -18.0040   23.8902 C.ar    1  UNL1        0.0577
      6 CL        -14.7302  -18.3352   23.9439 Cl      1  UNL1       -0.0822
      7 C         -12.7893  -16.8577   23.0496 C.ar    1  UNL1        0.0111
      8 C         -11.3273  -16.5264   22.9959 C.ar    1  UNL1       -0.0015
      9 C          -8.1949  -16.4516   24.9398 C.ar    1  UNL1       -0.0001
     10 C          -8.8495  -16.5490   26.2858 C.ar    1  UNL1       -0.0023
     11 C          -8.1621  -15.9903   27.4963 C.ar    1  UNL1       -0.0003
     12 C          -6.8201  -15.3342   27.3607 C.ar    1  UNL1       -0.0000
     13 C          -6.1654  -15.2368   26.0147 C.ar    1  UNL1       -0.0003
     14 C          -6.8528  -15.7955   24.8042 C.ar    1  UNL1       -0.0023
     15 C          -7.7520  -16.0769   21.5842 C.3     1  UNL1        0.1155
     16 N          -8.1076  -17.2378   22.4650 N.am    1  UNL1       -0.2703
     17 C          -7.6886  -18.6262   22.0817 C.2     1  UNL1        0.2493
     18 O          -8.0443  -19.7870   22.9625 O.2     1  UNL1       -0.2727
     19 C          -6.9140  -18.8536   20.8175 C.3     1  UNL1        0.1932
     20 N          -5.4380  -19.1137   20.8788 N.ar    1  UNL1       -0.2992
     21 C          -4.4927  -19.1080   19.7142 C.ar    1  UNL1        0.0984
     22 C          -3.1186  -19.4159   20.2311 C.ar    1  UNL1        0.1193
     23 N          -3.2147  -19.6120   21.7151 N.ar    1  UNL1       -0.2223
     24 C          -4.6482  -19.4252   22.1154 C.ar    1  UNL1        0.1790
@<TRIPOS>BOND
     1    15    16    1
     2    16    17   am
     3    17    18    2
     4    17    19    1
     5    19    20    1
     6    20    21   ar
     7    21    22   ar
     8    22    23   ar
     9    23    24   ar
    10    16     1    1
    11     1     9    1
    12     9    10   ar
    13    10    11   ar
    14    11    12   ar
    15    12    13   ar
    16    13    14   ar
    17     1     2    1
    18     2     3   ar
    19     3     4   ar
    20     4     5   ar
    21     5     6    1
    22     5     7   ar
    23     7     8   ar
    24    24    20   ar
    25    14     9   ar
    26     8     2   ar
@<TRIPOS>MOLECULE
*****
 24 26 0 0 0
SMALL
GASTEIGER

@<TRIPOS>ATOM
      1 C          -7.1200  -19.4769   21.0088 C.3     1  UNL1        0.1205
      2 C          -5.6484  -19.1867   21.0242 C.ar    1  UNL1       -0.0000
      3 C          -4.9124  -18.9739   19.7346 C.ar    1  UNL1       -0.0015
      4 C          -3.4408  -18.6836   19.7500 C.ar    1  UNL1        0.0111
      5 C          -2.7053  -18.6062   21.0549 C.ar    1  UNL1        0.0577
      6 CL         -1.2337  -18.3160   21.0703 Cl      1  UNL1       -0.0822
      7 C          -3.4412  -18.8190   22.3445 C.ar    1  UNL1        0.0111
      8 C          -4.9128  -19.1092   22.3291 C.ar    1  UNL1       -0.0015
      9 C          -7.7277  -20.2106   19.8502 C.ar    1  UNL1       -0.0001
     10 C          -7.1279  -21.5038   19.3835 C.ar    1  UNL1       -0.0023
     11 C          -7.7356  -22.2375   18.2250 C.ar    1  UNL1       -0.0003
     12 C          -8.9432  -21.6780   17.5331 C.ar    1  UNL1       -0.0000
     13 C          -9.5430  -20.3848   17.9997 C.ar    1  UNL1       -0.0003
     14 C          -8.9353  -19.6511   19.1583 C.ar    1  UNL1       -0.0023
     15 C          -8.5496  -20.0471   23.1019 C.3     1  UNL1        0.1155
     16 N          -7.9839  -19.0333   22.1520 N.am    1  UNL1       -0.2703
     17 C          -8.2820  -17.5760   22.3454 C.2     1  UNL1        0.2493
     18 O          -7.7162  -16.5622   21.3956 O.2     1  UNL1       -0.2727
     19 C          -9.1459  -17.1325   23.4887 C.3     1  UNL1        0.1932
     20 N          -8.5159  -16.6362   24.7562 N.ar    1  UNL1       -0.2992
     21 C          -7.3557  -15.6904   24.8526 C.ar    1  UNL1        0.0984
     22 C          -7.0582  -15.4682   26.3059 C.ar    1  UNL1        0.1193
     23 N          -8.0347  -16.2767   27.1078 N.ar    1  UNL1       -0.2223
     24 C          -8.9355  -16.9985   26.1500 C.ar    1  UNL1        0.1790
@<TRIPOS>BOND
     1    15    16    1
     2    16    17   am
     3    17    18    2
     4    17    19    1
     5    19    20    1
     6    20    21   ar
     7    21    22   ar
     8    22    23   ar
     9    23    24   ar
    10    16     1    1
    11     1     9    1
    12     9    10   ar
    13    10    11   ar
    14    11    12   ar
    15    12    13   ar
    16    13    14   ar
    17     1     2    1
    18     2     3   ar
    19     3     4   ar
    20     4     5   ar
    21     5     6    1
    22     5     7   ar
    23     7     8   ar
    24    24    20   ar
    25    14     9   ar
    26     8     2   ar
@<TRIPOS>MOLECULE
*****
 24 26 0 0 0
SMALL
GASTEIGER

@<TRIPOS>ATOM
      1 C          -7.0657  -19.5854   21.0821 C.3     1  UNL1        0.1205
      2 C          -7.6985  -20.1685   19.8535 C.ar    1  UNL1       -0.0000
      3 C          -8.8654  -19.4785   19.2113 C.ar    1  UNL1       -0.0015
      4 C          -9.4982  -20.0617   17.9827 C.ar    1  UNL1        0.0111
      5 C          -8.9641  -21.3348   17.3962 C.ar    1  UNL1        0.0577
      6 CL         -9.5969  -21.9180   16.1677 Cl      1  UNL1       -0.0822
      7 C          -7.7973  -22.0248   18.0384 C.ar    1  UNL1        0.0111
      8 C          -7.1645  -21.4417   19.2670 C.ar    1  UNL1       -0.0015
      9 C          -5.5797  -19.3885   21.1389 C.ar    1  UNL1       -0.0001
     10 C          -4.8010  -19.1857   19.8731 C.ar    1  UNL1       -0.0023
     11 C          -3.3151  -18.9889   19.9300 C.ar    1  UNL1       -0.0003
     12 C          -2.6079  -18.9948   21.2528 C.ar    1  UNL1       -0.0000
     13 C          -3.3866  -19.1976   22.5187 C.ar    1  UNL1       -0.0003
     14 C          -4.8725  -19.3944   22.4617 C.ar    1  UNL1       -0.0023
     15 C          -8.4325  -20.2544   23.1878 C.3     1  UNL1        0.1155
     16 N          -7.9188  -19.1991   22.2538 N.am    1  UNL1       -0.2703
     17 C          -8.2582  -17.7574   22.4915 C.2     1  UNL1        0.2493
     18 O          -7.7446  -16.7021   21.5575 O.2     1  UNL1       -0.2727
     19 C          -9.1113  -17.3711   23.6633 C.3     1  UNL1        0.1932
     20 N         -10.6063  -17.4070   23.5467 N.ar    1  UNL1       -0.2992
     21 C         -11.5166  -18.4133   24.1861 C.ar    1  UNL1        0.0984
     22 C         -12.9264  -18.0711   23.8049 C.ar    1  UNL1        0.1193
     23 N         -12.8875  -16.8533   22.9300 N.ar    1  UNL1       -0.2223
     24 C         -11.4536  -16.4429   22.7704 C.ar    1  UNL1        0.1790
@<TRIPOS>BOND
     1    15    16    1
     2    16    17   am
     3    17    18    2
     4    17    19    1
     5    19    20    1
     6    20    21   ar
     7    21    22   ar
     8    22    23   ar
     9    23    24   ar
    10    16     1    1
    11     1     9    1
    12     9    10   ar
    13    10    11   ar
    14    11    12   ar
    15    12    13   ar
    16    13    14   ar
    17     1     2    1
    18     2     3   ar
    19     3     4   ar
    20     4     5   ar
    21     5     6    1
    22     5     7   ar
    23     7     8   ar
    24    24    20   ar
    25    14     9   ar
    26     8     2   ar
@<TRIPOS>MOLECULE
*****
 24 26 0 0 0
SMALL
GASTEIGER

@<TRIPOS>ATOM
      1 C          -8.2747  -17.8841   22.7438 C.3     1  UNL1        0.1205
      2 C          -8.3165  -17.1233   24.0359 C.ar    1  UNL1       -0.0000
      3 C          -8.9467  -17.7401   25.2493 C.ar    1  UNL1       -0.0015
      4 C          -8.9886  -16.9793   26.5414 C.ar    1  UNL1        0.0111
      5 C          -8.4003  -15.6017   26.6200 C.ar    1  UNL1        0.0577
      6 CL         -8.4422  -14.8410   27.9121 Cl      1  UNL1       -0.0822
      7 C          -7.7701  -14.9849   25.4066 C.ar    1  UNL1        0.0111
      8 C          -7.7282  -15.7457   24.1145 C.ar    1  UNL1       -0.0015
      9 C          -9.3320  -17.6560   21.7045 C.ar    1  UNL1       -0.0001
     10 C         -10.0862  -16.3597   21.6738 C.ar    1  UNL1       -0.0023
     11 C         -11.1434  -16.1317   20.6345 C.ar    1  UNL1       -0.0003
     12 C         -11.4465  -17.1998   19.6259 C.ar    1  UNL1       -0.0000
     13 C         -10.6923  -18.4960   19.6566 C.ar    1  UNL1       -0.0003
     14 C          -9.6350  -18.7241   20.6959 C.ar    1  UNL1       -0.0023
     15 C          -7.5078  -20.3096   22.2159 C.3     1  UNL1        0.1155
     16 N          -7.1755  -18.8730   22.4910 N.am    1  UNL1       -0.2703
     17 C          -5.7440  -18.4252   22.5133 C.2     1  UNL1        0.2493
     18 O          -5.4117  -16.9886   22.7885 O.2     1  UNL1       -0.2727
     19 C          -4.6449  -19.4141   22.2605 C.3     1  UNL1        0.1932
     20 N          -3.5827  -19.1117   21.2455 N.ar    1  UNL1       -0.2992
     21 C          -2.1337  -18.8545   21.5355 C.ar    1  UNL1        0.0984
     22 C          -1.4385  -18.5972   20.2314 C.ar    1  UNL1        0.1193
     23 N          -2.4580  -18.6954   19.1354 N.ar    1  UNL1       -0.2223
     24 C          -3.7831  -19.0134   19.7622 C.ar    1  UNL1        0.1790
@<TRIPOS>BOND
     1    15    16    1
     2    16    17   am
     3    17    18    2
     4    17    19    1
     5    19    20    1
     6    20    21   ar
     7    21    22   ar
     8    22    23   ar
     9    23    24   ar
    10    16     1    1
    11     1     9    1
    12     9    10   ar
    13    10    11   ar
    14    11    12   ar
    15    12    13   ar
    16    13    14   ar
    17     1     2    1
    18     2     3   ar
    19     3     4   ar
    20     4     5   ar
    21     5     6    1
    22     5     7   ar
    23     7     8   ar
    24    24    20   ar
    25    14     9   ar
    26     8     2   ar
@<TRIPOS>MOLECULE
*****
 24 26 0 0 0
SMALL
GASTEIGER

@<TRIPOS>ATOM
      1 C          -7.1119  -17.0923   23.4436 C.3     1  UNL1        0.1205
      2 C          -5.9285  -17.7798   22.8297 C.ar    1  UNL1       -0.0000
      3 C          -4.5408  -17.4261   23.2761 C.ar    1  UNL1       -0.0015
      4 C          -3.3574  -18.1137   22.6621 C.ar    1  UNL1        0.0111
      5 C          -3.5617  -19.1550   21.6019 C.ar    1  UNL1        0.0577
      6 CL         -2.3784  -19.8425   20.9880 Cl      1  UNL1       -0.0822
      7 C          -4.9494  -19.5086   21.1556 C.ar    1  UNL1        0.0111
      8 C          -6.1328  -18.8211   21.7695 C.ar    1  UNL1       -0.0015
      9 C          -6.9580  -16.3433   24.7341 C.ar    1  UNL1       -0.0001
     10 C          -8.0964  -16.2874   25.7092 C.ar    1  UNL1       -0.0023
     11 C          -7.9424  -15.5385   26.9997 C.ar    1  UNL1       -0.0003
     12 C          -6.6500  -14.8454   27.3151 C.ar    1  UNL1       -0.0000
     13 C          -5.5116  -14.9013   26.3400 C.ar    1  UNL1       -0.0003
     14 C          -5.6656  -15.6503   25.0495 C.ar    1  UNL1       -0.0023
     15 C          -8.9049  -16.0164   21.9017 C.3     1  UNL1        0.1155
     16 N          -8.4492  -17.1537   22.7670 N.am    1  UNL1       -0.2703
     17 C          -9.3309  -18.3525   22.9558 C.2     1  UNL1        0.2493
     18 O          -8.8752  -19.4898   23.8211 O.2     1  UNL1       -0.2727
     19 C         -10.6682  -18.4139   22.2792 C.3     1  UNL1        0.1932
     20 N         -11.9252  -18.3476   23.0950 N.ar    1  UNL1       -0.2992
     21 C         -12.0749  -18.7877   24.5211 C.ar    1  UNL1        0.0984
     22 C         -13.4954  -18.5417   24.9354 C.ar    1  UNL1        0.1193
     23 N         -14.2237  -17.9497   23.7653 N.ar    1  UNL1       -0.2223
     24 C         -13.2532  -17.8297   22.6278 C.ar    1  UNL1        0.1790
@<TRIPOS>BOND
     1    15    16    1
     2    16    17   am
     3    17    18    2
     4    17    19    1
     5    19    20    1
     6    20    21   ar
     7    21    22   ar
     8    22    23   ar
     9    23    24   ar
    10    16     1    1
    11     1     9    1
    12     9    10   ar
    13    10    11   ar
    14    11    12   ar
    15    12    13   ar
    16    13    14   ar
    17     1     2    1
    18     2     3   ar
    19     3     4   ar
    20     4     5   ar
    21     5     6    1
    22     5     7   ar
    23     7     8   ar
    24    24    20   ar
    25    14     9   ar
    26     8     2   ar
@<TRIPOS>MOLECULE
*****
 24 26 0 0 0
SMALL
GASTEIGER

@<TRIPOS>ATOM
      1 C          -7.2262  -17.2759   23.2008 C.3     1  UNL1        0.1205
      2 C          -6.0929  -17.9795   22.5151 C.ar    1  UNL1       -0.0000
      3 C          -6.3269  -18.6863   21.2129 C.ar    1  UNL1       -0.0015
      4 C          -5.1935  -19.3900   20.5272 C.ar    1  UNL1        0.0111
      5 C          -3.8260  -19.3869   21.1436 C.ar    1  UNL1        0.0577
      6 CL         -2.6927  -20.0905   20.4579 Cl      1  UNL1       -0.0822
      7 C          -3.5920  -18.6801   22.4458 C.ar    1  UNL1        0.0111
      8 C          -4.7253  -17.9764   23.1315 C.ar    1  UNL1       -0.0015
      9 C          -6.9734  -16.4910   24.4539 C.ar    1  UNL1       -0.0001
     10 C          -5.6569  -15.8005   24.6535 C.ar    1  UNL1       -0.0023
     11 C          -5.4041  -15.0156   25.9065 C.ar    1  UNL1       -0.0003
     12 C          -6.4679  -14.9212   26.9598 C.ar    1  UNL1       -0.0000
     13 C          -7.7844  -15.6116   26.7602 C.ar    1  UNL1       -0.0003
     14 C          -8.0372  -16.3965   25.5072 C.ar    1  UNL1       -0.0023
     15 C          -9.2005  -16.1771   21.9183 C.3     1  UNL1        0.1155
     16 N          -8.6125  -17.3571   22.6336 N.am    1  UNL1       -0.2703
     17 C          -9.4107  -18.6185   22.7817 C.2     1  UNL1        0.2493
     18 O          -8.8227  -19.7985   23.4970 O.2     1  UNL1       -0.2727
     19 C         -10.7970  -18.6997   22.2145 C.3     1  UNL1        0.1932
     20 N         -11.9855  -18.4954   23.1064 N.ar    1  UNL1       -0.2992
     21 C         -12.1249  -18.9884   24.5162 C.ar    1  UNL1        0.0984
     22 C         -13.4688  -18.5599   25.0263 C.ar    1  UNL1        0.1193
     23 N         -14.1600  -17.8020   23.9318 N.ar    1  UNL1       -0.2223
     24 C         -13.2432  -17.7621   22.7453 C.ar    1  UNL1        0.1790
@<TRIPOS>BOND
     1    15    16    1
     2    16    17   am
     3    17    18    2
     4    17    19    1
     5    19    20    1
     6    20    21   ar
     7    21    22   ar
     8    22    23   ar
     9    23    24   ar
    10    16     1    1
    11     1     9    1
    12     9    10   ar
    13    10    11   ar
    14    11    12   ar
    15    12    13   ar
    16    13    14   ar
    17     1     2    1
    18     2     3   ar
    19     3     4   ar
    20     4     5   ar
    21     5     6    1
    22     5     7   ar
    23     7     8   ar
    24    24    20   ar
    25    14     9   ar
    26     8     2   ar
@<TRIPOS>MOLECULE
*****
 24 26 0 0 0
SMALL
GASTEIGER

@<TRIPOS>ATOM
      1 C          -7.0589  -17.1511   23.2943 C.3     1  UNL1        0.1205
      2 C          -5.8216  -17.8144   22.7660 C.ar    1  UNL1       -0.0000
      3 C          -4.4706  -17.3703   23.2432 C.ar    1  UNL1       -0.0015
      4 C          -3.2333  -18.0337   22.7148 C.ar    1  UNL1        0.0111
      5 C          -3.3469  -19.1410   21.7095 C.ar    1  UNL1        0.0577
      6 CL         -2.1096  -19.8043   21.1812 Cl      1  UNL1       -0.0822
      7 C          -4.6979  -19.5851   21.2324 C.ar    1  UNL1        0.0111
      8 C          -5.9352  -18.9218   21.7606 C.ar    1  UNL1       -0.0015
      9 C          -7.0176  -16.4210   24.6040 C.ar    1  UNL1       -0.0001
     10 C          -5.7581  -15.7327   25.0395 C.ar    1  UNL1       -0.0023
     11 C          -5.7168  -15.0026   26.3492 C.ar    1  UNL1       -0.0003
     12 C          -6.9351  -14.9608   27.2233 C.ar    1  UNL1       -0.0000
     13 C          -8.1946  -15.6491   26.7877 C.ar    1  UNL1       -0.0003
     14 C          -8.2359  -16.3792   25.4781 C.ar    1  UNL1       -0.0023
     15 C          -9.1890  -18.4514   22.5720 C.3     1  UNL1        0.1155
     16 N          -8.3376  -17.2180   22.5129 N.am    1  UNL1       -0.2703
     17 C          -8.7647  -16.0512   21.6724 C.2     1  UNL1        0.2493
     18 O          -7.9132  -14.8178   21.6133 O.2     1  UNL1       -0.2727
     19 C         -10.0434  -16.1181   20.8910 C.3     1  UNL1        0.1932
     20 N         -11.2892  -16.6498   21.5353 N.ar    1  UNL1       -0.2992
     21 C         -11.8720  -16.1912   22.8391 C.ar    1  UNL1        0.0984
     22 C         -13.1140  -16.9914   23.0986 C.ar    1  UNL1        0.1193
     23 N         -13.2987  -17.9445   21.9551 N.ar    1  UNL1       -0.2223
     24 C         -12.1709  -17.7333   20.9890 C.ar    1  UNL1        0.1790
@<TRIPOS>BOND
     1    15    16    1
     2    16    17   am
     3    17    18    2
     4    17    19    1
     5    19    20    1
     6    20    21   ar
     7    21    22   ar
     8    22    23   ar
     9    23    24   ar
    10    16     1    1
    11     1     9    1
    12     9    10   ar
    13    10    11   ar
    14    11    12   ar
    15    12    13   ar
    16    13    14   ar
    17     1     2    1
    18     2     3   ar
    19     3     4   ar
    20     4     5   ar
    21     5     6    1
    22     5     7   ar
    23     7     8   ar
    24    24    20   ar
    25    14     9   ar
    26     8     2   ar
@<TRIPOS>MOLECULE
*****
 24 26 0 0 0
SMALL
GASTEIGER

@<TRIPOS>ATOM
      1 C          -9.4173  -18.2582   21.8225 C.3     1  UNL1        0.1205
      2 C         -10.7253  -18.2644   22.5565 C.ar    1  UNL1       -0.0000
      3 C         -11.9333  -17.6217   21.9419 C.ar    1  UNL1       -0.0015
      4 C         -13.2414  -17.6278   22.6760 C.ar    1  UNL1        0.0111
      5 C         -13.3415  -18.2767   24.0247 C.ar    1  UNL1        0.0577
      6 CL        -14.6496  -18.2829   24.7587 Cl      1  UNL1       -0.0822
      7 C         -12.1336  -18.9195   24.6393 C.ar    1  UNL1        0.0111
      8 C         -10.8255  -18.9133   23.9052 C.ar    1  UNL1       -0.0015
      9 C          -9.2522  -19.0781   20.5772 C.ar    1  UNL1       -0.0001
     10 C          -7.8994  -19.6053   20.2002 C.ar    1  UNL1       -0.0023
     11 C          -7.7344  -20.4250   18.9549 C.ar    1  UNL1       -0.0003
     12 C          -8.9221  -20.7176   18.0867 C.ar    1  UNL1       -0.0000
     13 C         -10.2748  -20.1904   18.4637 C.ar    1  UNL1       -0.0003
     14 C         -10.4398  -19.3707   19.7089 C.ar    1  UNL1       -0.0023
     15 C          -7.1217  -18.0950   23.0283 C.3     1  UNL1        0.1155
     16 N          -8.2742  -17.4323   22.3337 N.am    1  UNL1       -0.2703
     17 C          -8.2838  -15.9435   22.1502 C.2     1  UNL1        0.2493
     18 O          -9.4362  -15.2808   21.4556 O.2     1  UNL1       -0.2727
     19 C          -7.1407  -15.1176   22.6614 C.3     1  UNL1        0.1932
     20 N          -6.7313  -15.2132   24.1013 N.ar    1  UNL1       -0.2992
     21 C          -5.3240  -15.2901   24.6145 C.ar    1  UNL1        0.0984
     22 C          -5.3802  -15.3732   26.1111 C.ar    1  UNL1        0.1193
     23 N          -6.8224  -15.3475   26.5229 N.ar    1  UNL1       -0.2223
     24 C          -7.6574  -15.2487   25.2807 C.ar    1  UNL1        0.1790
@<TRIPOS>BOND
     1    15    16    1
     2    16    17   am
     3    17    18    2
     4    17    19    1
     5    19    20    1
     6    20    21   ar
     7    21    22   ar
     8    22    23   ar
     9    23    24   ar
    10    16     1    1
    11     1     9    1
    12     9    10   ar
    13    10    11   ar
    14    11    12   ar
    15    12    13   ar
    16    13    14   ar
    17     1     2    1
    18     2     3   ar
    19     3     4   ar
    20     4     5   ar
    21     5     6    1
    22     5     7   ar
    23     7     8   ar
    24    24    20   ar
    25    14     9   ar
    26     8     2   ar
