@<TRIPOS>MOLECULE
*****
 30 32 0 0 0
SMALL
GASTEIGER

@<TRIPOS>ATOM
      1 C          -7.9386  -17.7757   21.9564 C.2     1  UNL1        0.2461
      2 O          -7.5509  -16.3866   21.5441 O.2     1  UNL1       -0.2730
      3 N          -8.7190  -17.9930   23.2189 N.am    1  UNL1       -0.2729
      4 C          -9.1068  -19.3821   23.6312 C.3     1  UNL1        0.1152
      5 C          -7.5461  -18.9475   21.1062 C.3     1  UNL1        0.1773
      6 C          -6.5190  -21.1055   22.1250 C.3     1  UNL1        0.1126
      7 N          -6.3440  -19.7680   21.4689 N.pl3   1  UNL1       -0.2980
      8 C          -4.9668  -19.2509   21.1755 C.ar    1  UNL1        0.0483
      9 C          -4.4738  -19.1914   19.7600 C.ar    1  UNL1        0.0152
     10 C          -3.0967  -18.6744   19.4666 C.ar    1  UNL1        0.0115
     11 C          -2.2125  -18.2169   20.5886 C.ar    1  UNL1        0.0685
     12 C          -2.7054  -18.2764   22.0040 C.ar    1  UNL1        0.0115
     13 C          -4.0826  -18.7934   22.2975 C.ar    1  UNL1        0.0152
     14 C          -0.8353  -17.6999   20.2951 C.1     1  UNL1        0.1004
     15 N           0.5419  -17.1829   20.0017 N.1     1  UNL1       -0.1908
     16 C          -9.1115  -16.8212   24.0691 C.3     1  UNL1        0.1139
     17 C          -8.1722  -16.3095   25.1208 C.ar    1  UNL1       -0.0029
     18 C          -6.8736  -15.6739   24.7215 C.ar    1  UNL1       -0.0026
     19 C          -5.9344  -15.1623   25.7731 C.ar    1  UNL1       -0.0003
     20 C          -6.2938  -15.2863   27.2242 C.ar    1  UNL1       -0.0000
     21 C          -7.5924  -15.9219   27.6235 C.ar    1  UNL1       -0.0003
     22 C          -8.5317  -16.4335   26.5718 C.ar    1  UNL1       -0.0026
     23 C         -10.4433  -16.1610   23.8676 C.3     1  UNL1        0.0968
     24 N         -11.2533  -16.4650   22.6422 N.3     1  UNL1       -0.2689
     25 C         -12.2967  -17.5355   22.5184 C.3     1  UNL1        0.0748
     26 C         -12.8505  -17.4840   21.1252 C.3     1  UNL1        0.0480
     27 C         -12.1493  -16.3817   20.3882 C.3     1  UNL1        0.1278
     28 O         -12.3925  -15.9797   18.9637 O.3     1  UNL1       -0.3830
     29 C         -11.1622  -15.7519   21.3257 C.3     1  UNL1        0.1017
     30 H         -13.0810  -16.5457   18.5811 H       1  UNL1        0.2104
@<TRIPOS>BOND
     1     6     7    1
     2     7     5    1
     3     5     1    1
     4     1     2    2
     5     1     3   am
     6     3     4    1
     7     3    16    1
     8    16    23    1
     9    23    24    1
    10    24    25    1
    11    25    26    1
    12    26    27    1
    13    27    28    1
    14    27    29    1
    15    16    17    1
    16    17    18   ar
    17    18    19   ar
    18    19    20   ar
    19    20    21   ar
    20    21    22   ar
    21     7     8    1
    22     8     9   ar
    23     9    10   ar
    24    10    11   ar
    25    11    14    1
    26    14    15    3
    27    11    12   ar
    28    12    13   ar
    29    29    24    1
    30    22    17   ar
    31    13     8   ar
    32    28    30    1
@<TRIPOS>MOLECULE
*****
 30 32 0 0 0
SMALL
GASTEIGER

@<TRIPOS>ATOM
      1 C          -7.5542  -19.1447   22.2835 C.2     1  UNL1        0.2461
      2 O          -7.1289  -17.9030   21.5573 O.2     1  UNL1       -0.2730
      3 N          -8.7289  -19.1032   23.2155 N.am    1  UNL1       -0.2729
      4 C          -9.1543  -20.3448   23.9417 C.3     1  UNL1        0.1152
      5 C          -6.8050  -20.4277   22.0778 C.3     1  UNL1        0.1773
      6 C          -6.4991  -21.5082   19.7350 C.3     1  UNL1        0.1126
      7 N          -5.9872  -20.6280   20.8364 N.pl3   1  UNL1       -0.2980
      8 C          -4.6576  -19.9480   20.6964 C.ar    1  UNL1        0.0483
      9 C          -4.3265  -19.1997   19.4391 C.ar    1  UNL1        0.0152
     10 C          -2.9969  -18.5197   19.2991 C.ar    1  UNL1        0.0115
     11 C          -1.9983  -18.5879   20.4164 C.ar    1  UNL1        0.0685
     12 C          -2.3294  -19.3360   21.6736 C.ar    1  UNL1        0.0115
     13 C          -3.6590  -20.0161   21.8136 C.ar    1  UNL1        0.0152
     14 C          -0.6687  -17.9078   20.2763 C.1     1  UNL1        0.1004
     15 N           0.6610  -17.2278   20.1363 N.1     1  UNL1       -0.1908
     16 C          -9.4782  -17.8201   23.4212 C.3     1  UNL1        0.1139
     17 C         -10.5399  -17.4069   22.4454 C.ar    1  UNL1       -0.0029
     18 C         -10.2382  -16.3718   21.4026 C.ar    1  UNL1       -0.0026
     19 C         -11.2999  -15.9586   20.4269 C.ar    1  UNL1       -0.0003
     20 C         -12.6633  -16.5805   20.4940 C.ar    1  UNL1       -0.0000
     21 C         -12.9649  -17.6156   21.5369 C.ar    1  UNL1       -0.0003
     22 C         -11.9032  -18.0288   22.5126 C.ar    1  UNL1       -0.0026
     23 C          -9.1657  -16.9503   24.6026 C.3     1  UNL1        0.0968
     24 N          -7.8519  -16.2304   24.6774 N.3     1  UNL1       -0.2689
     25 C          -7.1373  -15.8279   25.9334 C.3     1  UNL1        0.0748
     26 C          -5.8657  -15.1353   25.5415 C.3     1  UNL1        0.0480
     27 C          -5.7945  -15.1097   24.0434 C.3     1  UNL1        0.1278
     28 O          -4.6898  -14.5123   23.2234 O.3     1  UNL1       -0.3830
     29 C          -7.0220  -15.7865   23.5094 C.3     1  UNL1        0.1017
     30 H          -4.0160  -14.1381   23.8123 H       1  UNL1        0.2104
@<TRIPOS>BOND
     1     6     7    1
     2     7     5    1
     3     5     1    1
     4     1     2    2
     5     1     3   am
     6     3     4    1
     7     3    16    1
     8    16    23    1
     9    23    24    1
    10    24    25    1
    11    25    26    1
    12    26    27    1
    13    27    28    1
    14    27    29    1
    15    16    17    1
    16    17    18   ar
    17    18    19   ar
    18    19    20   ar
    19    20    21   ar
    20    21    22   ar
    21     7     8    1
    22     8     9   ar
    23     9    10   ar
    24    10    11   ar
    25    11    14    1
    26    14    15    3
    27    11    12   ar
    28    12    13   ar
    29    29    24    1
    30    22    17   ar
    31    13     8   ar
    32    28    30    1
@<TRIPOS>MOLECULE
*****
 30 32 0 0 0
SMALL
GASTEIGER

@<TRIPOS>ATOM
      1 C          -7.6861  -16.3678   23.1820 C.2     1  UNL1        0.2461
      2 O          -7.6034  -16.5370   21.6939 O.2     1  UNL1       -0.2730
      3 N          -8.5727  -17.2676   23.9911 N.am    1  UNL1       -0.2729
      4 C          -8.6554  -17.0984   25.4792 C.3     1  UNL1        0.1152
      5 C          -6.8823  -15.2989   23.8611 C.3     1  UNL1        0.1773
      6 C          -5.2056  -15.2998   25.8457 C.3     1  UNL1        0.1126
      7 N          -5.5257  -15.6186   24.4153 N.pl3   1  UNL1       -0.2980
      8 C          -4.4891  -16.2573   23.5392 C.ar    1  UNL1        0.0483
      9 C          -4.3716  -17.7517   23.4835 C.ar    1  UNL1        0.0152
     10 C          -3.3350  -18.3903   22.6073 C.ar    1  UNL1        0.0115
     11 C          -2.4160  -17.5346   21.7868 C.ar    1  UNL1        0.0685
     12 C          -2.5336  -16.0403   21.8425 C.ar    1  UNL1        0.0115
     13 C          -3.5702  -15.4016   22.7187 C.ar    1  UNL1        0.0152
     14 C          -1.3795  -18.1733   20.9106 C.1     1  UNL1        0.1004
     15 N          -0.3429  -18.8120   20.0345 N.1     1  UNL1       -0.1908
     16 C          -9.3765  -18.3366   23.3119 C.3     1  UNL1        0.1139
     17 C         -10.7972  -18.0673   22.9131 C.ar    1  UNL1       -0.0029
     18 C         -11.1075  -17.5735   21.5311 C.ar    1  UNL1       -0.0026
     19 C         -12.5282  -17.3042   21.1324 C.ar    1  UNL1       -0.0003
     20 C         -13.6386  -17.5288   22.1155 C.ar    1  UNL1       -0.0000
     21 C         -13.3283  -18.0226   23.4975 C.ar    1  UNL1       -0.0003
     22 C         -11.9076  -18.2918   23.8962 C.ar    1  UNL1       -0.0026
     23 C          -8.7596  -19.6748   23.0316 C.3     1  UNL1        0.0968
     24 N          -7.8193  -19.8397   21.8745 N.3     1  UNL1       -0.2689
     25 C          -8.1118  -19.4934   20.4446 C.3     1  UNL1        0.0748
     26 C          -6.8948  -19.8195   19.6305 C.3     1  UNL1        0.0480
     27 C          -5.8503  -20.3674   20.5573 C.3     1  UNL1        0.1278
     28 O          -4.4758  -20.8227   20.1660 O.3     1  UNL1       -0.3830
     29 C          -6.4217  -20.3798   21.9442 C.3     1  UNL1        0.1017
     30 H          -4.3578  -20.7098   19.2098 H       1  UNL1        0.2104
@<TRIPOS>BOND
     1     6     7    1
     2     7     5    1
     3     5     1    1
     4     1     2    2
     5     1     3   am
     6     3     4    1
     7     3    16    1
     8    16    23    1
     9    23    24    1
    10    24    25    1
    11    25    26    1
    12    26    27    1
    13    27    28    1
    14    27    29    1
    15    16    17    1
    16    17    18   ar
    17    18    19   ar
    18    19    20   ar
    19    20    21   ar
    20    21    22   ar
    21     7     8    1
    22     8     9   ar
    23     9    10   ar
    24    10    11   ar
    25    11    14    1
    26    14    15    3
    27    11    12   ar
    28    12    13   ar
    29    29    24    1
    30    22    17   ar
    31    13     8   ar
    32    28    30    1
@<TRIPOS>MOLECULE
*****
 30 32 0 0 0
SMALL
GASTEIGER

@<TRIPOS>ATOM
      1 C          -8.1552  -19.6319   22.7625 C.2     1  UNL1        0.2461
      2 O          -9.3818  -20.4473   23.0458 O.2     1  UNL1       -0.2730
      3 N          -8.1879  -18.1423   22.9369 N.am    1  UNL1       -0.2729
      4 C          -6.9613  -17.3269   22.6536 C.3     1  UNL1        0.1152
      5 C          -6.8957  -20.3058   22.3048 C.3     1  UNL1        0.1773
      6 C          -7.2141  -20.1755   19.7296 C.3     1  UNL1        0.1126
      7 N          -6.3433  -20.0164   20.9406 N.pl3   1  UNL1       -0.2980
      8 C          -4.9203  -19.5677   20.7874 C.ar    1  UNL1        0.0483
      9 C          -3.9711  -19.6759   21.9439 C.ar    1  UNL1        0.0152
     10 C          -2.5480  -19.2273   21.7907 C.ar    1  UNL1        0.0115
     11 C          -2.0740  -18.6704   20.4810 C.ar    1  UNL1        0.0685
     12 C          -3.0231  -18.5623   19.3245 C.ar    1  UNL1        0.0115
     13 C          -4.4463  -19.0109   19.4777 C.ar    1  UNL1        0.0152
     14 C          -0.6508  -18.2218   20.3278 C.1     1  UNL1        0.1004
     15 N           0.7723  -17.7732   20.1747 N.1     1  UNL1       -0.1908
     16 C          -9.4474  -17.4684   23.3946 C.3     1  UNL1        0.1139
     17 C         -10.5195  -17.1285   22.4020 C.ar    1  UNL1       -0.0029
     18 C         -11.8803  -17.7469   22.5267 C.ar    1  UNL1       -0.0026
     19 C         -12.9523  -17.4071   21.5342 C.ar    1  UNL1       -0.0003
     20 C         -12.6635  -16.4488   20.4169 C.ar    1  UNL1       -0.0000
     21 C         -11.3027  -15.8303   20.2922 C.ar    1  UNL1       -0.0003
     22 C         -10.2307  -16.1702   21.2848 C.ar    1  UNL1       -0.0026
     23 C          -9.6348  -17.1342   24.8449 C.3     1  UNL1        0.0968
     24 N          -8.5242  -16.4819   25.6138 N.3     1  UNL1       -0.2689
     25 C          -8.2299  -16.6747   27.0720 C.3     1  UNL1        0.0748
     26 C          -7.0368  -15.8342   27.4190 C.3     1  UNL1        0.0480
     27 C          -6.5939  -15.1221   26.1753 C.3     1  UNL1        0.1278
     28 O          -5.4352  -14.1759   26.0664 O.3     1  UNL1       -0.3830
     29 C          -7.5132  -15.5224   25.0597 C.3     1  UNL1        0.1017
     30 H          -5.0059  -14.0894   26.9319 H       1  UNL1        0.2104
@<TRIPOS>BOND
     1     6     7    1
     2     7     5    1
     3     5     1    1
     4     1     2    2
     5     1     3   am
     6     3     4    1
     7     3    16    1
     8    16    23    1
     9    23    24    1
    10    24    25    1
    11    25    26    1
    12    26    27    1
    13    27    28    1
    14    27    29    1
    15    16    17    1
    16    17    18   ar
    17    18    19   ar
    18    19    20   ar
    19    20    21   ar
    20    21    22   ar
    21     7     8    1
    22     8     9   ar
    23     9    10   ar
    24    10    11   ar
    25    11    14    1
    26    14    15    3
    27    11    12   ar
    28    12    13   ar
    29    29    24    1
    30    22    17   ar
    31    13     8   ar
    32    28    30    1
@<TRIPOS>MOLECULE
*****
 30 32 0 0 0
SMALL
GASTEIGER

@<TRIPOS>ATOM
      1 C          -7.8822  -16.1517   23.3613 C.2     1  UNL1        0.2461
      2 O          -8.2484  -17.3682   24.1588 O.2     1  UNL1       -0.2730
      3 N          -8.6319  -15.8258   22.1035 N.am    1  UNL1       -0.2729
      4 C          -8.2657  -14.6093   21.3061 C.3     1  UNL1        0.1152
      5 C          -6.7664  -15.2611   23.8215 C.3     1  UNL1        0.1773
      6 C          -5.3146  -15.8702   25.8882 C.3     1  UNL1        0.1126
      7 N          -5.5198  -15.8599   24.4023 N.pl3   1  UNL1       -0.2980
      8 C          -4.4784  -16.4483   23.4973 C.ar    1  UNL1        0.0483
      9 C          -4.4035  -17.9343   23.3066 C.ar    1  UNL1        0.0152
     10 C          -3.3621  -18.5228   22.4016 C.ar    1  UNL1        0.0115
     11 C          -2.3955  -17.6253   21.6872 C.ar    1  UNL1        0.0685
     12 C          -2.4704  -16.1394   21.8779 C.ar    1  UNL1        0.0115
     13 C          -3.5118  -15.5509   22.7830 C.ar    1  UNL1        0.0152
     14 C          -1.3541  -18.2139   20.7822 C.1     1  UNL1        0.1004
     15 N          -0.3127  -18.8023   19.8771 N.1     1  UNL1       -0.1908
     16 C          -9.7477  -16.7164   21.6433 C.3     1  UNL1        0.1139
     17 C          -9.4466  -17.9245   20.8067 C.ar    1  UNL1       -0.0029
     18 C          -8.0697  -18.5195   20.8168 C.ar    1  UNL1       -0.0026
     19 C          -7.7686  -19.7276   19.9802 C.ar    1  UNL1       -0.0003
     20 C          -8.8445  -20.3406   19.1336 C.ar    1  UNL1       -0.0000
     21 C         -10.2213  -19.7456   19.1235 C.ar    1  UNL1       -0.0003
     22 C         -10.5224  -18.5376   19.9601 C.ar    1  UNL1       -0.0026
     23 C         -11.1645  -16.3989   22.0197 C.3     1  UNL1        0.0968
     24 N         -11.8864  -17.2575   23.0156 N.3     1  UNL1       -0.2689
     25 C         -11.2577  -18.2707   23.9256 C.3     1  UNL1        0.0748
     26 C         -12.3464  -18.8930   24.7489 C.3     1  UNL1        0.0480
     27 C         -13.6479  -18.2643   24.3475 C.3     1  UNL1        0.1278
     28 O         -14.9967  -18.5894   24.9173 O.3     1  UNL1       -0.3830
     29 C         -13.3635  -17.2536   23.2763 C.3     1  UNL1        0.1017
     30 H         -14.9042  -19.2772   25.5950 H       1  UNL1        0.2104
@<TRIPOS>BOND
     1     6     7    1
     2     7     5    1
     3     5     1    1
     4     1     2    2
     5     1     3   am
     6     3     4    1
     7     3    16    1
     8    16    23    1
     9    23    24    1
    10    24    25    1
    11    25    26    1
    12    26    27    1
    13    27    28    1
    14    27    29    1
    15    16    17    1
    16    17    18   ar
    17    18    19   ar
    18    19    20   ar
    19    20    21   ar
    20    21    22   ar
    21     7     8    1
    22     8     9   ar
    23     9    10   ar
    24    10    11   ar
    25    11    14    1
    26    14    15    3
    27    11    12   ar
    28    12    13   ar
    29    29    24    1
    30    22    17   ar
    31    13     8   ar
    32    28    30    1
@<TRIPOS>MOLECULE
*****
 30 32 0 0 0
SMALL
GASTEIGER

@<TRIPOS>ATOM
      1 C          -7.9163  -17.2759   22.0358 C.2     1  UNL1        0.2461
      2 O          -7.4064  -18.4740   22.7804 O.2     1  UNL1       -0.2730
      3 N          -7.4671  -15.9002   22.4308 N.am    1  UNL1       -0.2729
      4 C          -7.9771  -14.7021   21.6862 C.3     1  UNL1        0.1152
      5 C          -8.8753  -17.4533   20.8961 C.3     1  UNL1        0.1773
      6 C          -9.9923  -19.5757   19.8972 C.3     1  UNL1        0.1126
      7 N          -9.9279  -18.5199   20.9608 N.pl3   1  UNL1       -0.2980
      8 C         -10.9161  -18.5309   22.0892 C.ar    1  UNL1        0.0483
      9 C         -10.6035  -19.2762   23.3529 C.ar    1  UNL1        0.0152
     10 C         -11.5917  -19.2871   24.4812 C.ar    1  UNL1        0.0115
     11 C         -12.8927  -18.5527   24.3459 C.ar    1  UNL1        0.0685
     12 C         -13.2053  -17.8075   23.0823 C.ar    1  UNL1        0.0115
     13 C         -12.2171  -17.7965   21.9539 C.ar    1  UNL1        0.0152
     14 C         -13.8809  -18.5637   25.4744 C.1     1  UNL1        0.1004
     15 N         -14.8691  -18.5747   26.6028 N.1     1  UNL1       -0.1908
     16 C          -6.5081  -15.7228   23.5704 C.3     1  UNL1        0.1139
     17 C          -7.0032  -15.7906   24.9848 C.ar    1  UNL1       -0.0029
     18 C          -8.3728  -16.3291   25.2750 C.ar    1  UNL1       -0.0026
     19 C          -8.8679  -16.3969   26.6893 C.ar    1  UNL1       -0.0003
     20 C          -7.9933  -15.9261   27.8134 C.ar    1  UNL1       -0.0000
     21 C          -6.6238  -15.3876   27.5232 C.ar    1  UNL1       -0.0003
     22 C          -6.1287  -15.3198   26.1089 C.ar    1  UNL1       -0.0026
     23 C          -5.0540  -15.4775   23.2958 C.3     1  UNL1        0.0968
     24 N          -4.1662  -16.6146   22.8848 N.3     1  UNL1       -0.2689
     25 C          -4.4840  -18.0744   23.0194 C.3     1  UNL1        0.0748
     26 C          -3.3189  -18.8536   22.4849 C.3     1  UNL1        0.0480
     27 C          -2.2811  -17.8753   22.0201 C.3     1  UNL1        0.1278
     28 O          -0.9529  -18.2202   21.4145 O.3     1  UNL1       -0.3830
     29 C          -2.8048  -16.4916   22.2673 C.3     1  UNL1        0.1017
     30 H          -0.8603  -19.1845   21.3659 H       1  UNL1        0.2104
@<TRIPOS>BOND
     1     6     7    1
     2     7     5    1
     3     5     1    1
     4     1     2    2
     5     1     3   am
     6     3     4    1
     7     3    16    1
     8    16    23    1
     9    23    24    1
    10    24    25    1
    11    25    26    1
    12    26    27    1
    13    27    28    1
    14    27    29    1
    15    16    17    1
    16    17    18   ar
    17    18    19   ar
    18    19    20   ar
    19    20    21   ar
    20    21    22   ar
    21     7     8    1
    22     8     9   ar
    23     9    10   ar
    24    10    11   ar
    25    11    14    1
    26    14    15    3
    27    11    12   ar
    28    12    13   ar
    29    29    24    1
    30    22    17   ar
    31    13     8   ar
    32    28    30    1
@<TRIPOS>MOLECULE
*****
 30 32 0 0 0
SMALL
GASTEIGER

@<TRIPOS>ATOM
      1 C          -7.4295  -19.1237   22.4302 C.2     1  UNL1        0.2461
      2 O          -8.9269  -19.2108   22.4344 O.2     1  UNL1       -0.2730
      3 N          -6.7507  -17.8552   22.8547 N.am    1  UNL1       -0.2729
      4 C          -5.2533  -17.7681   22.8505 C.3     1  UNL1        0.1152
      5 C          -6.6107  -20.3052   22.0014 C.3     1  UNL1        0.1773
      6 C          -6.6295  -20.8932   19.4709 C.3     1  UNL1        0.1126
      7 N          -5.9350  -20.3031   20.6623 N.pl3   1  UNL1       -0.2980
      8 C          -4.5648  -19.7110   20.5145 C.ar    1  UNL1        0.0483
      9 C          -3.4745  -20.0954   21.4703 C.ar    1  UNL1        0.0152
     10 C          -2.1043  -19.5033   21.3226 C.ar    1  UNL1        0.0115
     11 C          -1.8243  -18.5266   20.2190 C.ar    1  UNL1        0.0685
     12 C          -2.9145  -18.1421   19.2633 C.ar    1  UNL1        0.0115
     13 C          -4.2848  -18.7343   19.4110 C.ar    1  UNL1        0.0152
     14 C          -0.4540  -17.9345   20.0713 C.1     1  UNL1        0.1004
     15 N           0.9162  -17.3424   19.9236 N.1     1  UNL1       -0.1908
     16 C          -7.5695  -16.6738   23.2835 C.3     1  UNL1        0.1139
     17 C          -7.5119  -16.1974   24.7047 C.ar    1  UNL1       -0.0029
     18 C          -8.5949  -16.5813   25.6689 C.ar    1  UNL1       -0.0026
     19 C          -8.5373  -16.1049   27.0900 C.ar    1  UNL1       -0.0003
     20 C          -7.3966  -15.2446   27.5470 C.ar    1  UNL1       -0.0000
     21 C          -6.3136  -14.8607   26.5828 C.ar    1  UNL1       -0.0003
     22 C          -6.3713  -15.3371   25.1617 C.ar    1  UNL1       -0.0026
     23 C          -8.4459  -15.9687   22.2911 C.3     1  UNL1        0.0968
     24 N          -9.8889  -16.3558   22.1568 N.3     1  UNL1       -0.2689
     25 C         -10.6843  -16.3657   20.8850 C.3     1  UNL1        0.0748
     26 C         -12.0769  -16.8169   21.2128 C.3     1  UNL1        0.0480
     27 C         -12.1420  -17.0857   22.6872 C.3     1  UNL1        0.1278
     28 O         -13.3476  -17.5568   23.4450 O.3     1  UNL1       -0.3830
     29 C         -10.7898  -16.8007   23.2705 C.3     1  UNL1        0.1017
     30 H         -14.0925  -17.6645   22.8331 H       1  UNL1        0.2104
@<TRIPOS>BOND
     1     6     7    1
     2     7     5    1
     3     5     1    1
     4     1     2    2
     5     1     3   am
     6     3     4    1
     7     3    16    1
     8    16    23    1
     9    23    24    1
    10    24    25    1
    11    25    26    1
    12    26    27    1
    13    27    28    1
    14    27    29    1
    15    16    17    1
    16    17    18   ar
    17    18    19   ar
    18    19    20   ar
    19    20    21   ar
    20    21    22   ar
    21     7     8    1
    22     8     9   ar
    23     9    10   ar
    24    10    11   ar
    25    11    14    1
    26    14    15    3
    27    11    12   ar
    28    12    13   ar
    29    29    24    1
    30    22    17   ar
    31    13     8   ar
    32    28    30    1
@<TRIPOS>MOLECULE
*****
 30 32 0 0 0
SMALL
GASTEIGER

@<TRIPOS>ATOM
      1 C           6.1939   -3.5997   21.6298 C.2     1  UNL1        0.2461
      2 O           4.9592   -4.1496   22.2801 O.2     1  UNL1       -0.2730
      3 N           7.4061   -3.2949   22.4592 N.am    1  UNL1       -0.2729
      4 C           8.6409   -2.7450   21.8089 C.3     1  UNL1        0.1152
      5 C           6.2166   -3.3545   20.1502 C.3     1  UNL1        0.1773
      6 C           4.6056   -4.8467   18.7617 C.3     1  UNL1        0.1126
      7 N           4.9610   -3.5111   19.3447 N.pl3   1  UNL1       -0.2980
      8 C           4.0608   -2.3321   19.1221 C.ar    1  UNL1        0.0483
      9 C           3.0207   -1.9792   20.1439 C.ar    1  UNL1        0.0152
     10 C           2.1205   -0.8002   19.9213 C.ar    1  UNL1        0.0115
     11 C           2.2603    0.0259   18.6771 C.ar    1  UNL1        0.0685
     12 C           3.3002   -0.3270   17.6554 C.ar    1  UNL1        0.0115
     13 C           4.2005   -1.5061   17.8779 C.ar    1  UNL1        0.0152
     14 C           1.3600    1.2049   18.4546 C.1     1  UNL1        0.1004
     15 N           0.4597    2.3839   18.2321 N.1     1  UNL1       -0.1908
     16 C           7.3835   -3.5401   23.9389 C.3     1  UNL1        0.1139
     17 C           7.5267   -4.9355   24.4701 C.ar    1  UNL1       -0.0029
     18 C           6.9889   -5.2803   25.8273 C.ar    1  UNL1       -0.0026
     19 C           7.1321   -6.6757   26.3585 C.ar    1  UNL1       -0.0003
     20 C           7.8132   -7.7264   25.5326 C.ar    1  UNL1       -0.0000
     21 C           8.3511   -7.3817   24.1754 C.ar    1  UNL1       -0.0003
     22 C           8.2078   -5.9862   23.6442 C.ar    1  UNL1       -0.0026
     23 C           7.2176   -2.3898   24.8872 C.3     1  UNL1        0.0968
     24 N           5.8435   -1.9233   25.2673 N.3     1  UNL1       -0.2689
     25 C           4.8536   -1.2614   24.3552 C.3     1  UNL1        0.0748
     26 C           3.6164   -0.9657   25.1503 C.3     1  UNL1        0.0480
     27 C           3.8419   -1.4448   26.5538 C.3     1  UNL1        0.1278
     28 O           2.8629   -1.3490   27.6861 O.3     1  UNL1       -0.3830
     29 C           5.2183   -2.0366   26.6260 C.3     1  UNL1        0.1017
     30 H           2.0483   -0.9248   27.3741 H       1  UNL1        0.2104
@<TRIPOS>BOND
     1     6     7    1
     2     7     5    1
     3     5     1    1
     4     1     2    2
     5     1     3   am
     6     3     4    1
     7     3    16    1
     8    16    23    1
     9    23    24    1
    10    24    25    1
    11    25    26    1
    12    26    27    1
    13    27    28    1
    14    27    29    1
    15    16    17    1
    16    17    18   ar
    17    18    19   ar
    18    19    20   ar
    19    20    21   ar
    20    21    22   ar
    21     7     8    1
    22     8     9   ar
    23     9    10   ar
    24    10    11   ar
    25    11    14    1
    26    14    15    3
    27    11    12   ar
    28    12    13   ar
    29    29    24    1
    30    22    17   ar
    31    13     8   ar
    32    28    30    1
@<TRIPOS>MOLECULE
*****
 30 32 0 0 0
SMALL
GASTEIGER

@<TRIPOS>ATOM
      1 C           0.6458    2.1107   24.2952 C.2     1  UNL1        0.2461
      2 O           0.1360    0.8375   24.9024 O.2     1  UNL1       -0.2730
      3 N           0.2007    3.4341   24.8435 N.am    1  UNL1       -0.2729
      4 C           0.7105    4.7074   24.2362 C.3     1  UNL1        0.1152
      5 C           1.6008    2.0607   23.1395 C.3     1  UNL1        0.1773
      6 C           0.0895    1.6318   21.0702 C.3     1  UNL1        0.1126
      7 N           1.2637    1.2513   21.9225 N.pl3   1  UNL1       -0.2980
      8 C           2.1008    0.0612   21.5578 C.ar    1  UNL1        0.0483
      9 C           2.0412   -0.5002   20.1681 C.ar    1  UNL1        0.0152
     10 C           2.8783   -1.6903   19.8034 C.ar    1  UNL1        0.0115
     11 C           3.7751   -2.3189   20.8284 C.ar    1  UNL1        0.0685
     12 C           3.8347   -1.7575   22.2181 C.ar    1  UNL1        0.0115
     13 C           2.9976   -0.5674   22.5828 C.ar    1  UNL1        0.0152
     14 C           4.6122   -3.5090   20.4637 C.1     1  UNL1        0.1004
     15 N           5.4493   -4.6990   20.0989 N.1     1  UNL1       -0.1908
     16 C          -0.7543    3.4841   25.9991 C.3     1  UNL1        0.1139
     17 C          -2.2252    3.6412   25.7503 C.ar    1  UNL1       -0.0029
     18 C          -3.1221    4.1387   26.8448 C.ar    1  UNL1       -0.0026
     19 C          -4.5929    4.2957   26.5960 C.ar    1  UNL1       -0.0003
     20 C          -5.1669    3.9553   25.2525 C.ar    1  UNL1       -0.0000
     21 C          -4.2700    3.4579   24.1580 C.ar    1  UNL1       -0.0003
     22 C          -2.7991    3.3009   24.4069 C.ar    1  UNL1       -0.0026
     23 C          -0.2385    3.3771   27.4035 C.3     1  UNL1        0.0968
     24 N          -0.1391    2.0348   28.0658 N.3     1  UNL1       -0.2689
     25 C          -1.2161    0.9918   28.1102 C.3     1  UNL1        0.0748
     26 C          -0.6879   -0.1877   28.8717 C.3     1  UNL1        0.0480
     27 C           0.7156    0.1265   29.2979 C.3     1  UNL1        0.1278
     28 O           1.6209   -0.7747   30.0842 O.3     1  UNL1       -0.3830
     29 C           1.0547    1.5001   28.7998 C.3     1  UNL1        0.1017
     30 H           1.1594   -1.6049   30.2807 H       1  UNL1        0.2104
@<TRIPOS>BOND
     1     6     7    1
     2     7     5    1
     3     5     1    1
     4     1     2    2
     5     1     3   am
     6     3     4    1
     7     3    16    1
     8    16    23    1
     9    23    24    1
    10    24    25    1
    11    25    26    1
    12    26    27    1
    13    27    28    1
    14    27    29    1
    15    16    17    1
    16    17    18   ar
    17    18    19   ar
    18    19    20   ar
    19    20    21   ar
    20    21    22   ar
    21     7     8    1
    22     8     9   ar
    23     9    10   ar
    24    10    11   ar
    25    11    14    1
    26    14    15    3
    27    11    12   ar
    28    12    13   ar
    29    29    24    1
    30    22    17   ar
    31    13     8   ar
    32    28    30    1
