@<TRIPOS>MOLECULE
*****
 23 26 0 0 0
SMALL
GASTEIGER

@<TRIPOS>ATOM
      1 C          -8.8194  -18.1423   21.2571 C.2     1  UNL1        0.3428
      2 O          -8.3931  -19.5187   20.8405 O.2     1  UNL1       -0.2448
      3 C         -14.4683  -18.5001   25.5693 C.3     1  UNL1        0.0267
      4 C         -13.3651  -18.3607   24.5626 C.2     1  UNL1       -0.0383
      5 C         -11.9867  -18.8556   24.8870 C.2     1  UNL1       -0.0123
      6 C         -10.8835  -18.7161   23.8802 C.2     1  UNL1       -0.0211
      7 C          -9.5052  -19.2111   24.2046 C.3     1  UNL1        0.0310
      8 C         -11.1586  -18.0817   22.5492 C.2     1  UNL1        0.0177
      9 C         -10.2780  -17.8096   21.3657 C.2     1  UNL1        0.0955
     10 C         -11.1121  -17.1466   20.3099 C.2     1  UNL1        0.1049
     11 N         -12.5082  -17.0088   20.8409 N.2     1  UNL1       -0.2476
     12 C         -12.5370  -17.5867   22.2248 C.2     1  UNL1        0.0630
     13 C         -13.6402  -17.7262   23.2315 C.3     1  UNL1        0.0677
     14 O          -7.7872  -17.0985   21.5652 O.3     1  UNL1       -0.4454
     15 C          -8.1703  -15.8683   22.3332 C.3     1  UNL1        0.2087
     16 C          -7.7517  -15.7177   23.7657 C.3     1  UNL1        0.0445
     17 C          -6.3012  -15.5515   24.1097 C.3     1  UNL1        0.0210
     18 C          -5.8827  -15.4009   25.5423 C.3     1  UNL1        0.0722
     19 N          -6.9146  -15.4165   26.6307 N.3     1  UNL1       -0.2727
     20 C          -8.3652  -15.5827   26.2867 C.3     1  UNL1        0.0722
     21 C          -8.7837  -15.7333   24.8542 C.3     1  UNL1        0.0210
     22 C          -7.1921  -15.5026   25.8604 C.3     1  UNL1        0.0722
     23 C          -7.5706  -15.6387   24.5651 C.3     1  UNL1        0.0210
@<TRIPOS>BOND
     1     3     4    1
     2     4     5    2
     3     5     6    1
     4     6     7    1
     5     6     8    2
     6     8     9    1
     7     9     1    1
     8     1     2    2
     9     1    14    1
    10    14    15    1
    11    15    16    1
    12    16    17    1
    13    17    18    1
    14    18    19    1
    15    19    20    1
    16    20    21    1
    17    19    22    1
    18    22    23    1
    19     9    10    2
    20    10    11    1
    21    11    12    2
    22    12    13    1
    23    13     4    1
    24    12     8    1
    25    21    16    1
    26    23    16    1
@<TRIPOS>MOLECULE
*****
 23 26 0 0 0
SMALL
GASTEIGER

@<TRIPOS>ATOM
      1 C          -9.0129  -18.8210   20.4850 C.2     1  UNL1        0.3428
      2 O          -8.8907  -20.0273   19.6019 O.2     1  UNL1       -0.2448
      3 C         -14.1043  -18.4295   25.4404 C.3     1  UNL1        0.0267
      4 C         -13.1161  -18.4280   24.3120 C.2     1  UNL1       -0.0383
      5 C         -11.8227  -19.1757   24.4467 C.2     1  UNL1       -0.0123
      6 C         -10.8344  -19.1742   23.3182 C.2     1  UNL1       -0.0211
      7 C          -9.5411  -19.9219   23.4530 C.3     1  UNL1        0.0310
      8 C         -11.1396  -18.4250   22.0551 C.2     1  UNL1        0.0177
      9 C         -10.3648  -18.2439   20.7835 C.2     1  UNL1        0.0955
     10 C         -11.1793  -17.3842   19.8629 C.2     1  UNL1        0.1049
     11 N         -12.4575  -17.0341   20.5655 N.2     1  UNL1       -0.2476
     12 C         -12.4330  -17.6773   21.9204 C.2     1  UNL1        0.0630
     13 C         -13.4212  -17.6788   23.0488 C.3     1  UNL1        0.0677
     14 O          -7.7831  -18.1919   21.0696 O.3     1  UNL1       -0.4454
     15 C          -6.9184  -18.9722   22.0149 C.3     1  UNL1        0.2087
     16 C          -5.5316  -19.3720   21.6065 C.3     1  UNL1        0.0445
     17 C          -4.3479  -18.8686   22.3782 C.3     1  UNL1        0.0210
     18 C          -2.9611  -19.2685   21.9696 C.3     1  UNL1        0.0722
     19 N          -2.7580  -20.1717   20.7894 N.3     1  UNL1       -0.2727
     20 C          -3.9417  -20.6751   20.0177 C.3     1  UNL1        0.0722
     21 C          -5.3285  -20.2752   20.4263 C.3     1  UNL1        0.0210
     22 C          -3.5368  -19.9799   20.9754 C.3     1  UNL1        0.0722
     23 C          -4.7908  -19.6184   21.3447 C.3     1  UNL1        0.0210
@<TRIPOS>BOND
     1     3     4    1
     2     4     5    2
     3     5     6    1
     4     6     7    1
     5     6     8    2
     6     8     9    1
     7     9     1    1
     8     1     2    2
     9     1    14    1
    10    14    15    1
    11    15    16    1
    12    16    17    1
    13    17    18    1
    14    18    19    1
    15    19    20    1
    16    20    21    1
    17    19    22    1
    18    22    23    1
    19     9    10    2
    20    10    11    1
    21    11    12    2
    22    12    13    1
    23    13     4    1
    24    12     8    1
    25    21    16    1
    26    23    16    1
@<TRIPOS>MOLECULE
*****
 23 26 0 0 0
SMALL
GASTEIGER

@<TRIPOS>ATOM
      1 C          -8.1067  -18.0519   21.5685 C.2     1  UNL1        0.3428
      2 O          -8.1309  -18.5123   20.1411 O.2     1  UNL1       -0.2448
      3 C         -14.5642  -18.0932   24.5570 C.3     1  UNL1        0.0267
      4 C         -13.1694  -18.1962   24.0148 C.2     1  UNL1       -0.0383
      5 C         -12.7117  -17.2567   22.9387 C.2     1  UNL1       -0.0123
      6 C         -11.3169  -17.3598   22.3965 C.2     1  UNL1       -0.0211
      7 C         -10.8592  -16.4203   21.3205 C.3     1  UNL1        0.0310
      8 C         -10.3798  -18.4023   22.9304 C.2     1  UNL1        0.0177
      9 C          -8.9580  -18.7410   22.5934 C.2     1  UNL1        0.0955
     10 C          -8.5369  -19.8898   23.4611 C.2     1  UNL1        0.1049
     11 N          -9.6985  -20.2611   24.3344 N.2     1  UNL1       -0.2476
     12 C         -10.8375  -19.3417   24.0065 C.2     1  UNL1        0.0630
     13 C         -12.2323  -19.2387   24.5487 C.3     1  UNL1        0.0677
     14 O          -7.2312  -16.9023   21.9709 O.3     1  UNL1       -0.4454
     15 C          -7.7923  -15.7876   22.8032 C.3     1  UNL1        0.2087
     16 C          -7.4684  -15.7072   24.2656 C.3     1  UNL1        0.0445
     17 C          -6.0724  -15.3821   24.7079 C.3     1  UNL1        0.0210
     18 C          -5.7486  -15.3017   26.1703 C.3     1  UNL1        0.0722
     19 N          -6.8208  -15.5464   27.1904 N.3     1  UNL1       -0.2727
     20 C          -8.2167  -15.8715   26.7481 C.3     1  UNL1        0.0722
     21 C          -8.5405  -15.9519   25.2857 C.3     1  UNL1        0.0210
     22 C          -7.0461  -15.6015   26.4004 C.3     1  UNL1        0.0722
     23 C          -7.3390  -15.6742   25.0781 C.3     1  UNL1        0.0210
@<TRIPOS>BOND
     1     3     4    1
     2     4     5    2
     3     5     6    1
     4     6     7    1
     5     6     8    2
     6     8     9    1
     7     9     1    1
     8     1     2    2
     9     1    14    1
    10    14    15    1
    11    15    16    1
    12    16    17    1
    13    17    18    1
    14    18    19    1
    15    19    20    1
    16    20    21    1
    17    19    22    1
    18    22    23    1
    19     9    10    2
    20    10    11    1
    21    11    12    2
    22    12    13    1
    23    13     4    1
    24    12     8    1
    25    21    16    1
    26    23    16    1
@<TRIPOS>MOLECULE
*****
 23 26 0 0 0
SMALL
GASTEIGER

@<TRIPOS>ATOM
      1 C          -8.1632  -19.0034   20.3967 C.2     1  UNL1        0.3428
      2 O          -8.9490  -19.1393   19.1262 O.2     1  UNL1       -0.2448
      3 C         -14.0432  -17.9215   24.2551 C.3     1  UNL1        0.0267
      4 C         -12.7526  -18.2271   23.5544 C.2     1  UNL1       -0.0383
      5 C         -12.5078  -17.7021   22.1708 C.2     1  UNL1       -0.0123
      6 C         -11.2172  -18.0077   21.4701 C.2     1  UNL1       -0.0211
      7 C         -10.9723  -17.4827   20.0865 C.3     1  UNL1        0.0310
      8 C         -10.1714  -18.8383   22.1530 C.2     1  UNL1        0.0177
      9 C          -8.8129  -19.3000   21.7157 C.2     1  UNL1        0.0955
     10 C          -8.2180  -20.1104   22.8291 C.2     1  UNL1        0.1049
     11 N          -9.2090  -20.1495   23.9545 N.2     1  UNL1       -0.2476
     12 C         -10.4162  -19.3634   23.5367 C.2     1  UNL1        0.0630
     13 C         -11.7068  -19.0578   24.2374 C.3     1  UNL1        0.0677
     14 O          -6.7278  -18.5708   20.3480 O.3     1  UNL1       -0.4454
     15 C          -5.6440  -19.5886   20.1490 C.3     1  UNL1        0.2087
     16 C          -4.2103  -19.2122   20.3786 C.3     1  UNL1        0.0445
     17 C          -3.4028  -18.6182   19.2628 C.3     1  UNL1        0.0210
     18 C          -1.9691  -18.2418   19.4925 C.3     1  UNL1        0.0722
     19 N          -1.3429  -18.4593   20.8381 N.3     1  UNL1       -0.2727
     20 C          -2.1504  -19.0532   21.9539 C.3     1  UNL1        0.0722
     21 C          -3.5841  -19.4296   21.7242 C.3     1  UNL1        0.0210
     22 C          -2.1319  -18.6813   20.7600 C.3     1  UNL1        0.0722
     23 C          -3.4283  -19.0217   20.5524 C.3     1  UNL1        0.0210
@<TRIPOS>BOND
     1     3     4    1
     2     4     5    2
     3     5     6    1
     4     6     7    1
     5     6     8    2
     6     8     9    1
     7     9     1    1
     8     1     2    2
     9     1    14    1
    10    14    15    1
    11    15    16    1
    12    16    17    1
    13    17    18    1
    14    18    19    1
    15    19    20    1
    16    20    21    1
    17    19    22    1
    18    22    23    1
    19     9    10    2
    20    10    11    1
    21    11    12    2
    22    12    13    1
    23    13     4    1
    24    12     8    1
    25    21    16    1
    26    23    16    1
@<TRIPOS>MOLECULE
*****
 23 26 0 0 0
SMALL
GASTEIGER

@<TRIPOS>ATOM
      1 C          -9.4576  -18.2029   21.0308 C.2     1  UNL1        0.3428
      2 O         -10.4794  -17.4439   20.2372 O.2     1  UNL1       -0.2448
      3 C          -8.1884  -15.7499   27.5886 C.3     1  UNL1        0.0267
      4 C          -8.5280  -16.3773   26.2691 C.2     1  UNL1       -0.0383
      5 C          -8.0700  -15.7351   24.9933 C.2     1  UNL1       -0.0123
      6 C          -8.4097  -16.3625   23.6737 C.2     1  UNL1       -0.0211
      7 C          -7.9517  -15.7203   22.3979 C.3     1  UNL1        0.0310
      8 C          -9.2073  -17.6321   23.6301 C.2     1  UNL1        0.0177
      9 C          -9.6903  -18.4753   22.4874 C.2     1  UNL1        0.0955
     10 C         -10.4468  -19.6386   23.0570 C.2     1  UNL1        0.1049
     11 N         -10.4313  -19.5144   24.5518 N.2     1  UNL1       -0.2476
     12 C          -9.6653  -18.2743   24.9060 C.2     1  UNL1        0.0630
     13 C          -9.3257  -17.6469   26.2255 C.3     1  UNL1        0.0677
     14 O          -8.2032  -18.6896   20.3679 O.3     1  UNL1       -0.4454
     15 C          -7.4048  -19.7951   20.9928 C.3     1  UNL1        0.2087
     16 C          -5.9378  -19.6106   21.2453 C.3     1  UNL1        0.0445
     17 C          -4.9334  -20.2723   20.3490 C.3     1  UNL1        0.0210
     18 C          -3.4664  -20.0878   20.6016 C.3     1  UNL1        0.0722
     19 N          -3.0038  -19.2415   21.7504 N.3     1  UNL1       -0.2727
     20 C          -4.0081  -18.5798   22.6467 C.3     1  UNL1        0.0722
     21 C          -5.4752  -18.7643   22.3941 C.3     1  UNL1        0.0210
     22 C          -3.8180  -19.3134   21.6517 C.3     1  UNL1        0.0722
     23 C          -5.1445  -19.4802   21.4234 C.3     1  UNL1        0.0210
@<TRIPOS>BOND
     1     3     4    1
     2     4     5    2
     3     5     6    1
     4     6     7    1
     5     6     8    2
     6     8     9    1
     7     9     1    1
     8     1     2    2
     9     1    14    1
    10    14    15    1
    11    15    16    1
    12    16    17    1
    13    17    18    1
    14    18    19    1
    15    19    20    1
    16    20    21    1
    17    19    22    1
    18    22    23    1
    19     9    10    2
    20    10    11    1
    21    11    12    2
    22    12    13    1
    23    13     4    1
    24    12     8    1
    25    21    16    1
    26    23    16    1
@<TRIPOS>MOLECULE
*****
 23 26 0 0 0
SMALL
GASTEIGER

@<TRIPOS>ATOM
      1 C         -11.0408  -17.5144   20.2104 C.2     1  UNL1        0.3428
      2 O         -10.8842  -16.0852   19.7825 O.2     1  UNL1       -0.2448
      3 C          -4.5297  -19.2508   22.4956 C.3     1  UNL1        0.0267
      4 C          -5.8918  -18.9969   21.9210 C.2     1  UNL1       -0.0383
      5 C          -6.7235  -17.8603   22.4370 C.2     1  UNL1       -0.0123
      6 C          -8.0857  -17.6064   21.8623 C.2     1  UNL1       -0.0211
      7 C          -8.9174  -16.4698   22.3783 C.3     1  UNL1        0.0310
      8 C          -8.6160  -18.4891   20.7717 C.2     1  UNL1        0.0177
      9 C          -9.9121  -18.4832   20.0167 C.2     1  UNL1        0.0955
     10 C          -9.8815  -19.6161   19.0341 C.2     1  UNL1        0.1049
     11 N          -8.5663  -20.3222   19.1818 N.2     1  UNL1       -0.2476
     12 C          -7.7842  -19.6257   20.2557 C.2     1  UNL1        0.0630
     13 C          -6.4221  -19.8796   20.8303 C.3     1  UNL1        0.0677
     14 O         -12.3260  -17.9747   20.8318 O.3     1  UNL1       -0.4454
     15 C         -12.4941  -17.9378   22.3220 C.3     1  UNL1        0.2087
     16 C         -11.5308  -18.6755   23.2039 C.3     1  UNL1        0.0445
     17 C         -11.0636  -20.0485   22.8209 C.3     1  UNL1        0.0210
     18 C         -10.1003  -20.7861   23.7028 C.3     1  UNL1        0.0722
     19 N          -9.6041  -20.1508   24.9678 N.3     1  UNL1       -0.2727
     20 C         -10.0712  -18.7778   25.3508 C.3     1  UNL1        0.0722
     21 C         -11.0346  -18.0402   24.4688 C.3     1  UNL1        0.0210
     22 C         -10.1313  -19.7077   24.5165 C.3     1  UNL1        0.0722
     23 C         -11.0024  -19.0406   23.7191 C.3     1  UNL1        0.0210
@<TRIPOS>BOND
     1     3     4    1
     2     4     5    2
     3     5     6    1
     4     6     7    1
     5     6     8    2
     6     8     9    1
     7     9     1    1
     8     1     2    2
     9     1    14    1
    10    14    15    1
    11    15    16    1
    12    16    17    1
    13    17    18    1
    14    18    19    1
    15    19    20    1
    16    20    21    1
    17    19    22    1
    18    22    23    1
    19     9    10    2
    20    10    11    1
    21    11    12    2
    22    12    13    1
    23    13     4    1
    24    12     8    1
    25    21    16    1
    26    23    16    1
@<TRIPOS>MOLECULE
*****
 23 26 0 0 0
SMALL
GASTEIGER

@<TRIPOS>ATOM
      1 C          -7.1800  -19.4009   20.5886 C.2     1  UNL1        0.3428
      2 O          -7.4075  -19.0364   19.1514 O.2     1  UNL1       -0.2448
      3 C         -13.4235  -17.6358   23.5101 C.3     1  UNL1        0.0267
      4 C         -12.0444  -17.9223   22.9944 C.2     1  UNL1       -0.0383
      5 C         -11.8575  -18.8399   21.8227 C.2     1  UNL1       -0.0123
      6 C         -10.4783  -19.1264   21.3070 C.2     1  UNL1       -0.0211
      7 C         -10.2914  -20.0441   20.1352 C.3     1  UNL1        0.0310
      8 C          -9.2862  -18.4953   21.9630 C.2     1  UNL1        0.0177
      9 C          -7.8165  -18.5896   21.6779 C.2     1  UNL1        0.0955
     10 C          -7.0951  -17.7302   22.6735 C.2     1  UNL1        0.1049
     11 N          -8.1189  -17.1048   23.5738 N.2     1  UNL1       -0.2476
     12 C          -9.4731  -17.5776   23.1347 C.2     1  UNL1        0.0630
     13 C         -10.8522  -17.2911   23.6504 C.3     1  UNL1        0.0677
     14 O          -6.3160  -20.5767   20.9363 O.3     1  UNL1       -0.4454
     15 C          -4.9924  -20.7624   20.2553 C.3     1  UNL1        0.2087
     16 C          -3.9134  -19.7335   20.4197 C.3     1  UNL1        0.0445
     17 C          -3.1025  -19.6920   21.6809 C.3     1  UNL1        0.0210
     18 C          -2.0235  -18.6631   21.8453 C.3     1  UNL1        0.0722
     19 N          -1.7554  -17.6757   20.7484 N.3     1  UNL1       -0.2727
     20 C          -2.5663  -17.7172   19.4871 C.3     1  UNL1        0.0722
     21 C          -3.6453  -18.7461   19.3228 C.3     1  UNL1        0.0210
     22 C          -2.3571  -18.2210   20.6126 C.3     1  UNL1        0.0722
     23 C          -3.3328  -19.1514   20.4639 C.3     1  UNL1        0.0210
@<TRIPOS>BOND
     1     3     4    1
     2     4     5    2
     3     5     6    1
     4     6     7    1
     5     6     8    2
     6     8     9    1
     7     9     1    1
     8     1     2    2
     9     1    14    1
    10    14    15    1
    11    15    16    1
    12    16    17    1
    13    17    18    1
    14    18    19    1
    15    19    20    1
    16    20    21    1
    17    19    22    1
    18    22    23    1
    19     9    10    2
    20    10    11    1
    21    11    12    2
    22    12    13    1
    23    13     4    1
    24    12     8    1
    25    21    16    1
    26    23    16    1
@<TRIPOS>MOLECULE
*****
 23 26 0 0 0
SMALL
GASTEIGER

@<TRIPOS>ATOM
      1 C          -7.7652  -19.2299   21.2590 C.2     1  UNL1        0.3428
      2 O          -7.4186  -20.3430   22.2030 O.2     1  UNL1       -0.2448
      3 C         -14.1244  -17.8993   24.1611 C.3     1  UNL1        0.0267
      4 C         -12.8487  -18.1677   23.4191 C.2     1  UNL1       -0.0383
      5 C         -11.5793  -18.4210   24.1770 C.2     1  UNL1       -0.0123
      6 C         -10.3036  -18.6895   23.4349 C.2     1  UNL1       -0.0211
      7 C          -9.0342  -18.9428   24.1928 C.3     1  UNL1        0.0310
      8 C         -10.2974  -18.7045   21.9351 C.2     1  UNL1        0.0177
      9 C          -9.2012  -18.9384   20.9382 C.2     1  UNL1        0.0955
     10 C          -9.7931  -18.8296   19.5642 C.2     1  UNL1        0.1049
     11 N         -11.2551  -18.5284   19.7119 N.2     1  UNL1       -0.2476
     12 C         -11.5668  -18.4511   21.1772 C.2     1  UNL1        0.0630
     13 C         -12.8424  -18.1827   21.9192 C.3     1  UNL1        0.0677
     14 O          -6.6758  -18.4085   20.6359 O.3     1  UNL1       -0.4454
     15 C          -5.6804  -19.0547   19.7186 C.3     1  UNL1        0.2087
     16 C          -4.2195  -19.0268   20.0577 C.3     1  UNL1        0.0445
     17 C          -3.2483  -18.3508   19.1360 C.3     1  UNL1        0.0210
     18 C          -1.7874  -18.3230   19.4752 C.3     1  UNL1        0.0722
     19 N          -1.2978  -18.9712   20.7362 N.3     1  UNL1       -0.2727
     20 C          -2.2690  -19.6472   21.6580 C.3     1  UNL1        0.0722
     21 C          -3.7299  -19.6750   21.3187 C.3     1  UNL1        0.0210
     22 C          -2.1075  -19.0121   20.5927 C.3     1  UNL1        0.0722
     23 C          -3.4284  -19.0373   20.2860 C.3     1  UNL1        0.0210
@<TRIPOS>BOND
     1     3     4    1
     2     4     5    2
     3     5     6    1
     4     6     7    1
     5     6     8    2
     6     8     9    1
     7     9     1    1
     8     1     2    2
     9     1    14    1
    10    14    15    1
    11    15    16    1
    12    16    17    1
    13    17    18    1
    14    18    19    1
    15    19    20    1
    16    20    21    1
    17    19    22    1
    18    22    23    1
    19     9    10    2
    20    10    11    1
    21    11    12    2
    22    12    13    1
    23    13     4    1
    24    12     8    1
    25    21    16    1
    26    23    16    1
@<TRIPOS>MOLECULE
*****
 23 26 0 0 0
SMALL
GASTEIGER

@<TRIPOS>ATOM
      1 C          -9.1929  -18.5917   24.1540 C.2     1  UNL1        0.3428
      2 O          -9.5416  -19.8563   24.8816 O.2     1  UNL1       -0.2448
      3 C          -9.2380  -20.7143   17.3625 C.3     1  UNL1        0.0267
      4 C          -9.0923  -20.2195   18.7710 C.2     1  UNL1       -0.0383
      5 C         -10.2262  -20.3730   19.7409 C.2     1  UNL1       -0.0123
      6 C         -10.0805  -19.8782   21.1495 C.2     1  UNL1       -0.0211
      7 C         -11.2144  -20.0317   22.1194 C.3     1  UNL1        0.0310
      8 C          -8.8010  -19.2299   21.5881 C.2     1  UNL1        0.0177
      9 C          -8.3687  -18.6497   22.9020 C.2     1  UNL1        0.0955
     10 C          -6.9677  -18.1376   22.7443 C.2     1  UNL1        0.1049
     11 N          -6.5341  -18.4014   21.3327 N.2     1  UNL1       -0.2476
     12 C          -7.6671  -19.0764   20.6182 C.2     1  UNL1        0.0630
     13 C          -7.8127  -19.5712   19.2097 C.3     1  UNL1        0.0677
     14 O          -9.6682  -17.2693   24.6785 O.3     1  UNL1       -0.4454
     15 C          -9.8776  -16.1204   23.7370 C.3     1  UNL1        0.2087
     16 C         -10.7909  -16.2744   22.5572 C.3     1  UNL1        0.0445
     17 C         -10.2947  -15.9558   21.1779 C.3     1  UNL1        0.0210
     18 C         -11.2081  -16.1099   19.9981 C.3     1  UNL1        0.0722
     19 N         -12.6177  -16.5826   20.1976 N.3     1  UNL1       -0.2727
     20 C         -13.1138  -16.9011   21.5768 C.3     1  UNL1        0.0722
     21 C         -12.2005  -16.7471   22.7566 C.3     1  UNL1        0.0210
     22 C         -12.1542  -16.5135   20.8745 C.3     1  UNL1        0.0722
     23 C         -11.3284  -16.3742   21.9414 C.3     1  UNL1        0.0210
@<TRIPOS>BOND
     1     3     4    1
     2     4     5    2
     3     5     6    1
     4     6     7    1
     5     6     8    2
     6     8     9    1
     7     9     1    1
     8     1     2    2
     9     1    14    1
    10    14    15    1
    11    15    16    1
    12    16    17    1
    13    17    18    1
    14    18    19    1
    15    19    20    1
    16    20    21    1
    17    19    22    1
    18    22    23    1
    19     9    10    2
    20    10    11    1
    21    11    12    2
    22    12    13    1
    23    13     4    1
    24    12     8    1
    25    21    16    1
    26    23    16    1
