@<TRIPOS>MOLECULE
*****
 32 36 0 0 0
SMALL
GASTEIGER

@<TRIPOS>ATOM
      1 C           5.7884   -3.7613   19.7870 C.3     1  UNL1        0.0298
      2 C           5.4734   -3.2998   21.1791 C.3     1  UNL1        0.1343
      3 C           6.1893   -3.9050   22.3500 C.ar    1  UNL1        0.1615
      4 N           7.2459   -4.9658   22.4414 N.ar    1  UNL1       -0.1316
      5 N           7.5838   -5.1598   23.8899 N.ar    1  UNL1       -0.1274
      6 C           6.7361   -4.2189   24.6937 C.ar    1  UNL1        0.1845
      7 N           5.8742   -3.4434   23.7420 N.ar    1  UNL1       -0.2944
      8 C           4.8432   -2.3766   23.9631 C.3     1  UNL1        0.1302
      9 C           4.1273   -1.7714   22.7921 C.3     1  UNL1        0.1186
     10 N           4.4423   -2.2329   21.4002 N.am    1  UNL1       -0.2688
     11 C           3.7264   -1.6276   20.2292 C.2     1  UNL1        0.2493
     12 O           4.0414   -2.0892   18.8372 O.2     1  UNL1       -0.2699
     13 C           2.6954   -0.5608   20.4503 C.ar    1  UNL1        0.0536
     14 C           3.1160    0.8071   20.8995 C.ar    1  UNL1        0.0045
     15 C           2.0849    1.8740   21.1205 C.ar    1  UNL1        0.0006
     16 C           0.6333    1.5729   20.8924 C.ar    1  UNL1        0.0060
     17 C           0.2127    0.2048   20.4432 C.ar    1  UNL1        0.0006
     18 C           1.2437   -0.8620   20.2221 C.ar    1  UNL1        0.0045
     19 C          -0.3978    2.6396   21.1134 C.ar    1  UNL1        0.0295
     20 C          -1.3203    3.2033   20.0736 C.ar    1  UNL1        0.0070
     21 C          -2.1800    4.2420   20.7308 C.ar    1  UNL1        0.0075
     22 C          -1.7888    4.3203   22.1767 C.ar    1  UNL1        0.0354
     23 S          -0.6874    3.3300   22.4132 S.2     1  UNL1       -0.0864
     24 C           6.7482   -4.0783   26.1871 C.ar    1  UNL1        0.1241
     25 C           6.7252   -2.7878   26.9514 C.ar    1  UNL1        0.0590
     26 S           6.7482   -3.1155   28.4150 S.2     1  UNL1       -0.0620
     27 C           6.7853   -4.6084   28.5553 C.ar    1  UNL1        0.1825
     28 N           6.7853   -5.2035   27.1784 N.ar    1  UNL1       -0.2314
     29 C           6.8168   -5.3722   29.8459 C.3     1  UNL1        0.4407
     30 F           6.8484   -6.1360   31.1365 F       1  UNL1       -0.1640
     31 F           7.3559   -6.5710   29.1232 F       1  UNL1       -0.1640
     32 F           6.2777   -4.1734   30.5685 F       1  UNL1       -0.1640
@<TRIPOS>BOND
     1     2     1    1
     2     2     3    1
     3     3     4   ar
     4     4     5   ar
     5     5     6   ar
     6     6    24    1
     7    24    25   ar
     8    25    26   ar
     9    26    27   ar
    10    27    29    1
    11    29    30    1
    12    29    31    1
    13    29    32    1
    14    27    28   ar
    15     6     7   ar
    16     7     8    1
    17     8     9    1
    18     9    10    1
    19    10    11   am
    20    11    12    2
    21    11    13    1
    22    13    14   ar
    23    14    15   ar
    24    15    16   ar
    25    16    19    1
    26    19    20   ar
    27    20    21   ar
    28    21    22   ar
    29    22    23   ar
    30    16    17   ar
    31    17    18   ar
    32    10     2    1
    33    18    13   ar
    34     7     3   ar
    35    23    19   ar
    36    28    24   ar
@<TRIPOS>MOLECULE
*****
 32 36 0 0 0
SMALL
GASTEIGER

@<TRIPOS>ATOM
      1 C          -1.3703    3.4595   21.5651 C.3     1  UNL1        0.0298
      2 C          -0.2810    2.4712   21.8596 C.3     1  UNL1        0.1343
      3 C           0.3788    1.7255   20.7377 C.ar    1  UNL1        0.1615
      4 N           0.1685    1.7547   19.2528 N.ar    1  UNL1       -0.1316
      5 N           1.1279    0.7845   18.6297 N.ar    1  UNL1       -0.1274
      6 C           1.9310    0.1556   19.7295 C.ar    1  UNL1        0.1845
      7 N           1.4680    0.7372   21.0324 N.ar    1  UNL1       -0.2944
      8 C           1.8976    0.4946   22.4489 C.3     1  UNL1        0.1302
      9 C           1.2378    1.2403   23.5708 C.3     1  UNL1        0.1186
     10 N           0.1486    2.2285   23.2762 N.am    1  UNL1       -0.2688
     11 C          -0.5111    2.9742   24.3982 C.2     1  UNL1        0.2493
     12 O          -1.6004    3.9625   24.1036 O.2     1  UNL1       -0.2699
     13 C          -0.0816    2.7316   25.8148 C.ar    1  UNL1        0.0536
     14 C           1.0299    3.5435   26.4110 C.ar    1  UNL1        0.0045
     15 C           1.4594    3.3008   27.8276 C.ar    1  UNL1        0.0006
     16 C           0.7775    2.2464   28.6479 C.ar    1  UNL1        0.0060
     17 C          -0.3341    1.4344   28.0516 C.ar    1  UNL1        0.0006
     18 C          -0.7636    1.6770   26.6351 C.ar    1  UNL1        0.0045
     19 C           1.2069    2.0036   30.0644 C.ar    1  UNL1        0.0295
     20 C           0.5800    2.5989   31.2902 C.ar    1  UNL1        0.0070
     21 C           1.3244    2.0861   32.4872 C.ar    1  UNL1        0.0075
     22 C           2.4114    1.1739   32.0013 C.ar    1  UNL1        0.0354
     23 S           2.3388    1.1229   30.5039 S.2     1  UNL1       -0.0864
     24 C           3.0080   -0.8740   19.5568 C.ar    1  UNL1        0.1241
     25 C           4.4851   -0.6125   19.5505 C.ar    1  UNL1        0.0590
     26 S           5.1870   -1.9229   19.3498 S.2     1  UNL1       -0.0620
     27 C           4.1438   -2.9943   19.2321 C.ar    1  UNL1        0.1825
     28 N           2.7972   -2.3460   19.3600 N.ar    1  UNL1       -0.2314
     29 C           4.4019   -4.4571   19.0232 C.3     1  UNL1        0.4407
     30 F           4.6600   -5.9198   18.8143 F       1  UNL1       -0.1640
     31 F           2.9581   -4.6617   18.6719 F       1  UNL1       -0.1640
     32 F           5.8458   -4.2524   19.3745 F       1  UNL1       -0.1640
@<TRIPOS>BOND
     1     2     1    1
     2     2     3    1
     3     3     4   ar
     4     4     5   ar
     5     5     6   ar
     6     6    24    1
     7    24    25   ar
     8    25    26   ar
     9    26    27   ar
    10    27    29    1
    11    29    30    1
    12    29    31    1
    13    29    32    1
    14    27    28   ar
    15     6     7   ar
    16     7     8    1
    17     8     9    1
    18     9    10    1
    19    10    11   am
    20    11    12    2
    21    11    13    1
    22    13    14   ar
    23    14    15   ar
    24    15    16   ar
    25    16    19    1
    26    19    20   ar
    27    20    21   ar
    28    21    22   ar
    29    22    23   ar
    30    16    17   ar
    31    17    18   ar
    32    10     2    1
    33    18    13   ar
    34     7     3   ar
    35    23    19   ar
    36    28    24   ar
@<TRIPOS>MOLECULE
*****
 32 36 0 0 0
SMALL
GASTEIGER

@<TRIPOS>ATOM
      1 C          -1.1799    3.4867   22.0474 C.3     1  UNL1        0.0298
      2 C          -0.1088    2.4382   22.1049 C.3     1  UNL1        0.1343
      3 C           0.4114    1.8270   20.8377 C.ar    1  UNL1        0.1615
      4 N           0.0636    2.0556   19.3966 N.ar    1  UNL1       -0.1316
      5 N           0.9197    1.1483   18.5636 N.ar    1  UNL1       -0.1274
      6 C           1.7966    0.3589   19.4899 C.ar    1  UNL1        0.1845
      7 N           1.4825    0.7784   20.8953 N.ar    1  UNL1       -0.2944
      8 C           2.0334    0.3410   22.2202 C.3     1  UNL1        0.1302
      9 C           1.5132    0.9522   23.4874 C.3     1  UNL1        0.1186
     10 N           0.4422    2.0007   23.4298 N.am    1  UNL1       -0.2688
     11 C          -0.0780    2.6119   24.6971 C.2     1  UNL1        0.2493
     12 O          -1.1491    3.6605   24.6394 O.2     1  UNL1       -0.2699
     13 C           0.4729    2.1746   26.0219 C.ar    1  UNL1        0.0536
     14 C          -0.2428    1.1276   26.8230 C.ar    1  UNL1        0.0045
     15 C           0.3082    0.6903   28.1479 C.ar    1  UNL1        0.0006
     16 C           1.5746    1.2998   28.6716 C.ar    1  UNL1        0.0060
     17 C           2.2903    2.3468   27.8704 C.ar    1  UNL1        0.0006
     18 C           1.7395    2.7842   26.5456 C.ar    1  UNL1        0.0045
     19 C           2.1256    0.8625   29.9964 C.ar    1  UNL1        0.0295
     20 C           2.7530   -0.4668   30.2952 C.ar    1  UNL1        0.0070
     21 C           3.1610   -0.4730   31.7385 C.ar    1  UNL1        0.0075
     22 C           2.7859    0.8526   32.3319 C.ar    1  UNL1        0.0354
     23 S           2.1460    1.6780   31.2553 S.2     1  UNL1       -0.0864
     24 C           2.8098   -0.6693   19.0822 C.ar    1  UNL1        0.1241
     25 C           4.0447   -0.4164   18.2691 C.ar    1  UNL1        0.0590
     26 S           4.7640   -1.7218   18.1004 S.2     1  UNL1       -0.0620
     27 C           3.9737   -2.7815   18.8092 C.ar    1  UNL1        0.1825
     28 N           2.7659   -2.1310   19.4159 N.ar    1  UNL1       -0.2314
     29 C           4.3288   -4.2363   18.8960 C.3     1  UNL1        0.4407
     30 F           4.6839   -5.6911   18.9828 F       1  UNL1       -0.1640
     31 F           2.8717   -4.5925   18.8868 F       1  UNL1       -0.1640
     32 F           5.7859   -3.8801   18.9052 F       1  UNL1       -0.1640
@<TRIPOS>BOND
     1     2     1    1
     2     2     3    1
     3     3     4   ar
     4     4     5   ar
     5     5     6   ar
     6     6    24    1
     7    24    25   ar
     8    25    26   ar
     9    26    27   ar
    10    27    29    1
    11    29    30    1
    12    29    31    1
    13    29    32    1
    14    27    28   ar
    15     6     7   ar
    16     7     8    1
    17     8     9    1
    18     9    10    1
    19    10    11   am
    20    11    12    2
    21    11    13    1
    22    13    14   ar
    23    14    15   ar
    24    15    16   ar
    25    16    19    1
    26    19    20   ar
    27    20    21   ar
    28    21    22   ar
    29    22    23   ar
    30    16    17   ar
    31    17    18   ar
    32    10     2    1
    33    18    13   ar
    34     7     3   ar
    35    23    19   ar
    36    28    24   ar
@<TRIPOS>MOLECULE
*****
 32 36 0 0 0
SMALL
GASTEIGER

@<TRIPOS>ATOM
      1 C           4.6408   -0.7036   30.5470 C.3     1  UNL1        0.0298
      2 C           3.7140    0.2045   31.2995 C.3     1  UNL1        0.1343
      3 C           3.9247    0.4440   32.7651 C.ar    1  UNL1        0.1615
      4 N           4.9514   -0.0723   33.7290 N.ar    1  UNL1       -0.1316
      5 N           4.6591    0.5168   35.0772 N.ar    1  UNL1       -0.1274
      6 C           3.4517    1.3971   34.9465 C.ar    1  UNL1        0.1845
      7 N           2.9978    1.3522   33.5175 N.ar    1  UNL1       -0.2944
      8 C           1.8602    2.0209   32.8043 C.3     1  UNL1        0.1302
      9 C           1.6495    1.7814   31.3386 C.3     1  UNL1        0.1186
     10 N           2.5763    0.8733   30.5862 N.am    1  UNL1       -0.2688
     11 C           2.3656    0.6338   29.1204 C.2     1  UNL1        0.2493
     12 O           3.2925   -0.2744   28.3680 O.2     1  UNL1       -0.2699
     13 C           1.2280    1.3025   28.4072 C.ar    1  UNL1        0.0536
     14 C           1.4582    2.5864   27.6665 C.ar    1  UNL1        0.0045
     15 C           0.3205    3.2550   26.9532 C.ar    1  UNL1        0.0006
     16 C          -1.0471    2.6398   26.9806 C.ar    1  UNL1        0.0060
     17 C          -1.2773    1.3558   27.7213 C.ar    1  UNL1        0.0006
     18 C          -0.1397    0.6871   28.4346 C.ar    1  UNL1        0.0045
     19 C          -2.1848    3.3084   26.2674 C.ar    1  UNL1        0.0295
     20 C          -3.4686    3.7685   26.8919 C.ar    1  UNL1        0.0070
     21 C          -4.3155    4.3787   25.8148 C.ar    1  UNL1        0.0075
     22 C          -3.5552    4.2957   24.5245 C.ar    1  UNL1        0.0354
     23 S          -2.2383    3.6342   24.8042 S.2     1  UNL1       -0.0864
     24 C           2.8108    2.1843   36.0509 C.ar    1  UNL1        0.1241
     25 C           2.5148    3.6546   36.0287 C.ar    1  UNL1        0.0590
     26 S           1.8744    4.0182   37.3355 S.2     1  UNL1       -0.0620
     27 C           1.7745    2.7727   38.1653 C.ar    1  UNL1        0.1825
     28 N           2.3532    1.6392   37.3713 N.ar    1  UNL1       -0.2314
     29 C           1.1973    2.6773   39.5465 C.3     1  UNL1        0.4407
     30 F           0.6200    2.5819   40.9277 F       1  UNL1       -0.1640
     31 F           2.4260    3.3316   40.1052 F       1  UNL1       -0.1640
     32 F          -0.0315    2.0230   38.9878 F       1  UNL1       -0.1640
@<TRIPOS>BOND
     1     2     1    1
     2     2     3    1
     3     3     4   ar
     4     4     5   ar
     5     5     6   ar
     6     6    24    1
     7    24    25   ar
     8    25    26   ar
     9    26    27   ar
    10    27    29    1
    11    29    30    1
    12    29    31    1
    13    29    32    1
    14    27    28   ar
    15     6     7   ar
    16     7     8    1
    17     8     9    1
    18     9    10    1
    19    10    11   am
    20    11    12    2
    21    11    13    1
    22    13    14   ar
    23    14    15   ar
    24    15    16   ar
    25    16    19    1
    26    19    20   ar
    27    20    21   ar
    28    21    22   ar
    29    22    23   ar
    30    16    17   ar
    31    17    18   ar
    32    10     2    1
    33    18    13   ar
    34     7     3   ar
    35    23    19   ar
    36    28    24   ar
@<TRIPOS>MOLECULE
*****
 32 36 0 0 0
SMALL
GASTEIGER

@<TRIPOS>ATOM
      1 C          -0.6557    2.7589   24.4994 C.3     1  UNL1        0.0298
      2 C           0.4870    1.8254   24.2294 C.3     1  UNL1        0.1343
      3 C           0.8180    1.4330   22.8200 C.ar    1  UNL1        0.1615
      4 N           0.2009    1.8030   21.5039 N.ar    1  UNL1       -0.1316
      5 N           0.9623    1.0983   20.4205 N.ar    1  UNL1       -0.1274
      6 C           2.0499    0.2926   21.0671 C.ar    1  UNL1        0.1845
      7 N           1.9607    0.4995   22.5501 N.ar    1  UNL1       -0.2944
      8 C           2.7725   -0.0415   23.6895 C.3     1  UNL1        0.1302
      9 C           2.4415    0.3509   25.0989 C.3     1  UNL1        0.1186
     10 N           1.2988    1.2843   25.3689 N.am    1  UNL1       -0.2688
     11 C           0.9678    1.6768   26.7783 C.2     1  UNL1        0.2493
     12 O          -0.1749    2.6103   27.0483 O.2     1  UNL1       -0.2699
     13 C           1.7795    1.1358   27.9178 C.ar    1  UNL1        0.0536
     14 C           3.0829    1.7819   28.2833 C.ar    1  UNL1        0.0045
     15 C           3.8947    1.2408   29.4229 C.ar    1  UNL1        0.0006
     16 C           3.4030    0.0538   30.1967 C.ar    1  UNL1        0.0060
     17 C           2.0995   -0.5924   29.8312 C.ar    1  UNL1        0.0006
     18 C           1.2878   -0.0514   28.6917 C.ar    1  UNL1        0.0045
     19 C           4.2146   -0.4874   31.3362 C.ar    1  UNL1        0.0295
     20 C           3.8307   -0.4549   32.7859 C.ar    1  UNL1        0.0070
     21 C           4.9316   -1.1035   33.5716 C.ar    1  UNL1        0.0075
     22 C           5.9959   -1.5368   32.6076 C.ar    1  UNL1        0.0354
     23 S           5.5528   -1.1560   31.2260 S.2     1  UNL1       -0.0864
     24 C           3.0509   -0.5686   20.3556 C.ar    1  UNL1        0.1241
     25 C           4.3994   -0.1317   19.8650 C.ar    1  UNL1        0.0590
     26 S           5.0610   -1.3111   19.2160 S.2     1  UNL1       -0.0620
     27 C           4.1214   -2.4769   19.3053 C.ar    1  UNL1        0.1825
     28 N           2.8791   -2.0180   20.0096 N.ar    1  UNL1       -0.2314
     29 C           4.3790   -3.8590   18.7822 C.3     1  UNL1        0.4407
     30 F           4.6365   -5.2410   18.2591 F       1  UNL1       -0.1640
     31 F           2.9723   -4.2509   19.1253 F       1  UNL1       -0.1640
     32 F           5.7856   -3.4670   18.4392 F       1  UNL1       -0.1640
@<TRIPOS>BOND
     1     2     1    1
     2     2     3    1
     3     3     4   ar
     4     4     5   ar
     5     5     6   ar
     6     6    24    1
     7    24    25   ar
     8    25    26   ar
     9    26    27   ar
    10    27    29    1
    11    29    30    1
    12    29    31    1
    13    29    32    1
    14    27    28   ar
    15     6     7   ar
    16     7     8    1
    17     8     9    1
    18     9    10    1
    19    10    11   am
    20    11    12    2
    21    11    13    1
    22    13    14   ar
    23    14    15   ar
    24    15    16   ar
    25    16    19    1
    26    19    20   ar
    27    20    21   ar
    28    21    22   ar
    29    22    23   ar
    30    16    17   ar
    31    17    18   ar
    32    10     2    1
    33    18    13   ar
    34     7     3   ar
    35    23    19   ar
    36    28    24   ar
@<TRIPOS>MOLECULE
*****
 32 36 0 0 0
SMALL
GASTEIGER

@<TRIPOS>ATOM
      1 C         -18.9862   -3.0805   20.1264 C.3     1  UNL1        0.0298
      2 C         -17.5238   -2.8956   19.8486 C.3     1  UNL1        0.1343
      3 C         -16.6859   -4.0670   19.4294 C.ar    1  UNL1        0.1615
      4 N         -17.0207   -5.5122   19.2074 N.ar    1  UNL1       -0.1316
      5 N         -15.7652   -6.2204   18.7924 N.ar    1  UNL1       -0.1274
      6 C         -14.6545   -5.2129   18.7579 C.ar    1  UNL1        0.1845
      7 N         -15.2235   -3.8820   19.1516 N.ar    1  UNL1       -0.2944
      8 C         -14.5990   -2.5255   19.2930 C.3     1  UNL1        0.1302
      9 C         -15.4369   -1.3541   19.7122 C.3     1  UNL1        0.1186
     10 N         -16.8992   -1.5391   19.9899 N.am    1  UNL1       -0.2688
     11 C         -17.7371   -0.3676   20.4092 C.2     1  UNL1        0.2493
     12 O         -19.1995   -0.5527   20.6870 O.2     1  UNL1       -0.2699
     13 C         -17.1126    0.9888   20.5506 C.ar    1  UNL1        0.0536
     14 C         -17.2698    1.7573   21.8291 C.ar    1  UNL1        0.0045
     15 C         -16.6452    3.1138   21.9705 C.ar    1  UNL1        0.0006
     16 C         -15.8635    3.7017   20.8334 C.ar    1  UNL1        0.0060
     17 C         -15.7063    2.9332   19.5547 C.ar    1  UNL1        0.0006
     18 C         -16.3308    1.5768   19.4133 C.ar    1  UNL1        0.0045
     19 C         -15.2389    5.0582   20.9746 C.ar    1  UNL1        0.0295
     20 C         -14.3578    5.5102   22.1012 C.ar    1  UNL1        0.0070
     21 C         -13.9602    6.9322   21.8368 C.ar    1  UNL1        0.0075
     22 C         -14.5956    7.3590   20.5468 C.ar    1  UNL1        0.0354
     23 S         -15.3859    6.2008   20.0140 S.2     1  UNL1       -0.0864
     24 C         -13.2256   -5.4879   18.3937 C.ar    1  UNL1        0.1241
     25 C         -12.4785   -4.8874   17.2399 C.ar    1  UNL1        0.0590
     26 S         -11.0842   -5.4402   17.2525 S.2     1  UNL1       -0.0620
     27 C         -10.9695   -6.3824   18.4140 C.ar    1  UNL1        0.1825
     28 N         -12.2930   -6.4119   19.1193 N.ar    1  UNL1       -0.2314
     29 C          -9.7461   -7.1588   18.8020 C.3     1  UNL1        0.4407
     30 F          -8.5227   -7.9352   19.1901 F       1  UNL1       -0.1640
     31 F         -10.1834   -8.2894   17.9186 F       1  UNL1       -0.1640
     32 F          -9.3089   -6.0282   19.6855 F       1  UNL1       -0.1640
@<TRIPOS>BOND
     1     2     1    1
     2     2     3    1
     3     3     4   ar
     4     4     5   ar
     5     5     6   ar
     6     6    24    1
     7    24    25   ar
     8    25    26   ar
     9    26    27   ar
    10    27    29    1
    11    29    30    1
    12    29    31    1
    13    29    32    1
    14    27    28   ar
    15     6     7   ar
    16     7     8    1
    17     8     9    1
    18     9    10    1
    19    10    11   am
    20    11    12    2
    21    11    13    1
    22    13    14   ar
    23    14    15   ar
    24    15    16   ar
    25    16    19    1
    26    19    20   ar
    27    20    21   ar
    28    21    22   ar
    29    22    23   ar
    30    16    17   ar
    31    17    18   ar
    32    10     2    1
    33    18    13   ar
    34     7     3   ar
    35    23    19   ar
    36    28    24   ar
@<TRIPOS>MOLECULE
*****
 32 36 0 0 0
SMALL
GASTEIGER

@<TRIPOS>ATOM
      1 C           9.2685   -7.8126   27.5231 C.3     1  UNL1        0.0298
      2 C           8.6210   -6.5447   27.0507 C.3     1  UNL1        0.1343
      3 C           8.3204   -6.3537   25.5936 C.ar    1  UNL1        0.1615
      4 N           8.5461   -7.2320   24.3987 N.ar    1  UNL1       -0.1316
      5 N           8.0380   -6.5069   23.1879 N.ar    1  UNL1       -0.1274
      6 C           7.4983   -5.1804   23.6345 C.ar    1  UNL1        0.1845
      7 N           7.6729   -5.0858   25.1213 N.ar    1  UNL1       -0.2944
      8 C           7.3259   -4.0089   26.1060 C.3     1  UNL1        0.1302
      9 C           7.6264   -4.1999   27.5631 C.3     1  UNL1        0.1186
     10 N           8.2739   -5.4677   28.0355 N.am    1  UNL1       -0.2688
     11 C           8.5745   -5.6587   29.4927 C.2     1  UNL1        0.2493
     12 O           9.2220   -6.9266   29.9650 O.2     1  UNL1       -0.2699
     13 C           8.2274   -4.5818   30.4775 C.ar    1  UNL1        0.0536
     14 C           6.9107   -4.6176   31.1949 C.ar    1  UNL1        0.0045
     15 C           6.5637   -3.5406   32.1797 C.ar    1  UNL1        0.0006
     16 C           7.5334   -2.4280   32.4470 C.ar    1  UNL1        0.0060
     17 C           8.8503   -2.3922   31.7295 C.ar    1  UNL1        0.0006
     18 C           9.1973   -3.4691   30.7447 C.ar    1  UNL1        0.0045
     19 C           7.1865   -1.3510   33.4318 C.ar    1  UNL1        0.0295
     20 C           5.8022   -0.9356   33.8331 C.ar    1  UNL1        0.0070
     21 C           5.9233    0.1718   34.8375 C.ar    1  UNL1        0.0075
     22 C           7.3825    0.4409   35.0570 C.ar    1  UNL1        0.0354
     23 S           8.1633   -0.5002   34.1883 S.2     1  UNL1       -0.0864
     24 C           6.8908   -4.1327   22.7495 C.ar    1  UNL1        0.1241
     25 C           7.4154   -2.7431   22.5400 C.ar    1  UNL1        0.0590
     26 S           6.5007   -2.0422   21.5798 S.2     1  UNL1       -0.0620
     27 C           5.4108   -2.9985   21.1958 C.ar    1  UNL1        0.1825
     28 N           5.6518   -4.2905   21.9188 N.ar    1  UNL1       -0.2314
     29 C           4.2786   -2.7130   20.2542 C.3     1  UNL1        0.4407
     30 F           3.1464   -2.4275   19.3126 F       1  UNL1       -0.1640
     31 F           3.4949   -2.1068   21.3804 F       1  UNL1       -0.1640
     32 F           5.0623   -3.3192   19.1280 F       1  UNL1       -0.1640
@<TRIPOS>BOND
     1     2     1    1
     2     2     3    1
     3     3     4   ar
     4     4     5   ar
     5     5     6   ar
     6     6    24    1
     7    24    25   ar
     8    25    26   ar
     9    26    27   ar
    10    27    29    1
    11    29    30    1
    12    29    31    1
    13    29    32    1
    14    27    28   ar
    15     6     7   ar
    16     7     8    1
    17     8     9    1
    18     9    10    1
    19    10    11   am
    20    11    12    2
    21    11    13    1
    22    13    14   ar
    23    14    15   ar
    24    15    16   ar
    25    16    19    1
    26    19    20   ar
    27    20    21   ar
    28    21    22   ar
    29    22    23   ar
    30    16    17   ar
    31    17    18   ar
    32    10     2    1
    33    18    13   ar
    34     7     3   ar
    35    23    19   ar
    36    28    24   ar
@<TRIPOS>MOLECULE
*****
 32 36 0 0 0
SMALL
GASTEIGER

@<TRIPOS>ATOM
      1 C         -18.7479    0.2802   17.2535 C.3     1  UNL1        0.0298
      2 C         -17.6230   -0.2873   18.0676 C.3     1  UNL1        0.1343
      3 C         -16.9870   -1.5851   17.6662 C.ar    1  UNL1        0.1615
      4 N         -17.2537   -2.5234   16.5268 N.ar    1  UNL1       -0.1316
      5 N         -16.2937   -3.6707   16.6367 N.ar    1  UNL1       -0.1274
      6 C         -15.4337   -3.4415   17.8441 C.ar    1  UNL1        0.1845
      7 N         -15.8621   -2.1524   18.4804 N.ar    1  UNL1       -0.2944
      8 C         -15.3733   -1.4220   19.6959 C.3     1  UNL1        0.1302
      9 C         -16.0094   -0.1242   20.0973 C.3     1  UNL1        0.1186
     10 N         -17.1341    0.4432   19.2832 N.am    1  UNL1       -0.2688
     11 C         -17.7702    1.7410   19.6846 C.2     1  UNL1        0.2493
     12 O         -18.8951    2.3084   18.8705 O.2     1  UNL1       -0.2699
     13 C         -17.2814    2.4715   20.9002 C.ar    1  UNL1        0.0536
     14 C         -17.8525    2.1489   22.2491 C.ar    1  UNL1        0.0045
     15 C         -17.3636    2.8794   23.4647 C.ar    1  UNL1        0.0006
     16 C         -16.3038    3.9324   23.3312 C.ar    1  UNL1        0.0060
     17 C         -15.7327    4.2550   21.9821 C.ar    1  UNL1        0.0006
     18 C         -16.2215    3.5245   20.7666 C.ar    1  UNL1        0.0045
     19 C         -15.8149    4.6629   24.5466 C.ar    1  UNL1        0.0295
     20 C         -14.4039    4.6833   25.0551 C.ar    1  UNL1        0.0070
     21 C         -14.3683    5.5343   26.2898 C.ar    1  UNL1        0.0075
     22 C         -15.7573    6.0399   26.5444 C.ar    1  UNL1        0.0354
     23 S         -16.6514    5.5014   25.4671 S.2     1  UNL1       -0.0864
     24 C         -14.3376   -4.3429   18.3298 C.ar    1  UNL1        0.1241
     25 C         -14.5164   -5.7142   18.9110 C.ar    1  UNL1        0.0590
     26 S         -13.1595   -6.2501   19.2600 S.2     1  UNL1       -0.0620
     27 C         -12.1422   -5.2102   18.8946 C.ar    1  UNL1        0.1825
     28 N         -12.8703   -4.0315   18.3197 N.ar    1  UNL1       -0.2314
     29 C         -10.6575   -5.3282   19.0728 C.3     1  UNL1        0.4407
     30 F          -9.1728   -5.4462   19.2510 F       1  UNL1       -0.1640
     31 F         -10.5476   -3.8340   19.1464 F       1  UNL1       -0.1640
     32 F         -10.7675   -6.8223   18.9992 F       1  UNL1       -0.1640
@<TRIPOS>BOND
     1     2     1    1
     2     2     3    1
     3     3     4   ar
     4     4     5   ar
     5     5     6   ar
     6     6    24    1
     7    24    25   ar
     8    25    26   ar
     9    26    27   ar
    10    27    29    1
    11    29    30    1
    12    29    31    1
    13    29    32    1
    14    27    28   ar
    15     6     7   ar
    16     7     8    1
    17     8     9    1
    18     9    10    1
    19    10    11   am
    20    11    12    2
    21    11    13    1
    22    13    14   ar
    23    14    15   ar
    24    15    16   ar
    25    16    19    1
    26    19    20   ar
    27    20    21   ar
    28    21    22   ar
    29    22    23   ar
    30    16    17   ar
    31    17    18   ar
    32    10     2    1
    33    18    13   ar
    34     7     3   ar
    35    23    19   ar
    36    28    24   ar
@<TRIPOS>MOLECULE
*****
 32 36 0 0 0
SMALL
GASTEIGER

@<TRIPOS>ATOM
      1 C           8.5729   -6.6731   28.9389 C.3     1  UNL1        0.0298
      2 C           7.8577   -5.4669   28.4065 C.3     1  UNL1        0.1343
      3 C           7.6147   -5.3286   26.9328 C.ar    1  UNL1        0.1615
      4 N           7.9617   -6.2120   25.7712 N.ar    1  UNL1       -0.1316
      5 N           7.4609   -5.5516   24.5210 N.ar    1  UNL1       -0.1274
      6 C           6.8044   -4.2602   24.9099 C.ar    1  UNL1        0.1845
      7 N           6.8995   -4.1224   26.4005 N.ar    1  UNL1       -0.2944
      8 C           6.4272   -3.0543   27.3419 C.3     1  UNL1        0.1302
      9 C           6.6702   -3.1926   28.8156 C.3     1  UNL1        0.1186
     10 N           7.3854   -4.3988   29.3479 N.am    1  UNL1       -0.2688
     11 C           7.6283   -4.5370   30.8217 C.2     1  UNL1        0.2493
     12 O           8.3436   -5.7433   31.3540 O.2     1  UNL1       -0.2699
     13 C           7.1561   -3.4690   31.7631 C.ar    1  UNL1        0.0536
     14 C           8.0943   -2.3811   32.1946 C.ar    1  UNL1        0.0045
     15 C           7.6220   -1.3130   33.1361 C.ar    1  UNL1        0.0006
     16 C           6.2115   -1.3329   33.6459 C.ar    1  UNL1        0.0060
     17 C           5.2732   -2.4208   33.2144 C.ar    1  UNL1        0.0006
     18 C           5.7455   -3.4889   32.2730 C.ar    1  UNL1        0.0045
     19 C           5.7391   -0.2649   34.5873 C.ar    1  UNL1        0.0295
     20 C           5.0198   -0.4880   35.8845 C.ar    1  UNL1        0.0070
     21 C           4.7393    0.8528   36.4956 C.ar    1  UNL1        0.0075
     22 C           5.2852    1.9046   35.5761 C.ar    1  UNL1        0.0354
     23 S           5.9031    1.2139   34.3967 S.2     1  UNL1       -0.0864
     24 C           6.1651   -3.2789   23.9727 C.ar    1  UNL1        0.1241
     25 C           6.4953   -1.8197   23.8641 C.ar    1  UNL1        0.0590
     26 S           5.6176   -1.2235   22.8038 S.2     1  UNL1       -0.0620
     27 C           4.7449   -2.3142   22.2571 C.ar    1  UNL1        0.1825
     28 N           5.0833   -3.5844   22.9796 N.ar    1  UNL1       -0.2314
     29 C           3.7147   -2.1614   21.1776 C.3     1  UNL1        0.4407
     30 F           2.6845   -2.0086   20.0981 F       1  UNL1       -0.1640
     31 F           2.8177   -1.4360   22.1363 F       1  UNL1       -0.1640
     32 F           4.6118   -2.8868   20.2189 F       1  UNL1       -0.1640
@<TRIPOS>BOND
     1     2     1    1
     2     2     3    1
     3     3     4   ar
     4     4     5   ar
     5     5     6   ar
     6     6    24    1
     7    24    25   ar
     8    25    26   ar
     9    26    27   ar
    10    27    29    1
    11    29    30    1
    12    29    31    1
    13    29    32    1
    14    27    28   ar
    15     6     7   ar
    16     7     8    1
    17     8     9    1
    18     9    10    1
    19    10    11   am
    20    11    12    2
    21    11    13    1
    22    13    14   ar
    23    14    15   ar
    24    15    16   ar
    25    16    19    1
    26    19    20   ar
    27    20    21   ar
    28    21    22   ar
    29    22    23   ar
    30    16    17   ar
    31    17    18   ar
    32    10     2    1
    33    18    13   ar
    34     7     3   ar
    35    23    19   ar
    36    28    24   ar
