@<TRIPOS>MOLECULE
*****
 37 40 0 0 0
SMALL
GASTEIGER

@<TRIPOS>ATOM
      1 C          -8.4978  -18.4359   21.8680 C.ar    1  UNL1        0.0852
      2 C          -7.5196  -19.4299   21.3157 C.ar    1  UNL1        0.0221
      3 C          -7.8572  -20.2055   20.0769 C.ar    1  UNL1        0.0508
      4 C          -6.8790  -21.1995   19.5245 C.ar    1  UNL1        0.1353
      5 N          -7.2165  -21.9750   18.2858 N.ar    1  UNL1       -0.2089
      6 C          -8.5322  -21.7565   17.5993 C.ar    1  UNL1        0.2000
      7 N          -9.5103  -20.7625   18.1517 N.ar    1  UNL1       -0.2238
      8 C          -9.1729  -19.9870   19.3905 C.ar    1  UNL1        0.0888
      9 C         -10.1510  -18.9930   19.9428 C.ar    1  UNL1        0.0574
     10 C          -9.8135  -18.2174   21.1816 C.ar    1  UNL1        0.1533
     11 C          -7.7618  -16.2179   23.0034 C.2     1  UNL1        0.2769
     12 O          -7.7007  -15.5511   21.6612 O.2     1  UNL1       -0.2674
     13 N          -8.1603  -17.6603   23.1068 N.am    1  UNL1       -0.2762
     14 H          -8.2003  -18.0980   23.9878 H       1  UNL1        0.1553
     15 C          -6.1353  -15.7045   24.9633 C.2     1  UNL1        0.0256
     16 C          -7.4243  -15.4424   24.2422 C.2     1  UNL1        0.1905
     17 F          -8.3757  -14.4048   24.7600 F       1  UNL1       -0.1997
     18 C          -5.7978  -14.9290   26.2021 C.3     1  UNL1        0.1014
     19 C          -7.5580  -16.1955   27.6330 C.3     1  UNL1        0.0899
     20 N          -6.7096  -14.9822   27.3919 N.3     1  UNL1       -0.2665
     21 C          -6.7728  -13.8222   28.3408 C.3     1  UNL1        0.0899
     22 N          -5.5633  -21.4179   20.2110 N.pl3   1  UNL1       -0.2978
     23 H          -5.3021  -22.3227   20.4981 H       1  UNL1        0.1536
     24 C          -4.6455  -20.2579   20.4601 C.ar    1  UNL1        0.0504
     25 C          -3.8384  -19.6847   19.3332 C.ar    1  UNL1        0.0170
     26 C          -2.9207  -18.5246   19.5822 C.ar    1  UNL1        0.0318
     27 C          -2.8101  -17.9377   20.9581 C.ar    1  UNL1        0.1507
     28 F          -1.8924  -16.7776   21.2072 F       1  UNL1       -0.2033
     29 C          -3.6173  -18.5108   22.0851 C.ar    1  UNL1        0.0863
     30 CL         -3.5068  -17.9239   23.4611 Cl      1  UNL1       -0.0799
     31 C          -4.5350  -19.6709   21.8361 C.ar    1  UNL1        0.0283
     32 O         -10.7917  -17.2234   21.7339 O.3     1  UNL1       -0.4752
     33 C         -11.7757  -17.6440   22.7850 C.3     1  UNL1        0.1979
     34 C         -13.2433  -17.3341   22.7933 C.3     1  UNL1        0.0782
     35 C         -13.8395  -17.9469   24.0258 C.3     1  UNL1        0.1461
     36 O         -12.7403  -18.6355   24.7792 O.3     1  UNL1       -0.3498
     37 C         -11.4648  -18.4482   24.0124 C.3     1  UNL1        0.1855
@<TRIPOS>BOND
     1    19    20    1
     2    20    21    1
     3    20    18    1
     4    18    15    1
     5    15    16    2
     6    16    17    1
     7    16    11    1
     8    11    12    2
     9    11    13   am
    10    13     1    1
    11     1     2   ar
    12     2     3   ar
    13     3     4   ar
    14     4    22    1
    15    22    24    1
    16    24    25   ar
    17    25    26   ar
    18    26    27   ar
    19    27    28    1
    20    27    29   ar
    21    29    30    1
    22    29    31   ar
    23     4     5   ar
    24     5     6   ar
    25     6     7   ar
    26     7     8   ar
    27     8     9   ar
    28     9    10   ar
    29    10    32    1
    30    33    32    1
    31    33    34    1
    32    34    35    1
    33    35    36    1
    34    36    37    1
    35    10     1   ar
    36    37    33    1
    37     8     3   ar
    38    31    24   ar
    39    13    14    1
    40    22    23    1
@<TRIPOS>MOLECULE
*****
 37 40 0 0 0
SMALL
GASTEIGER

@<TRIPOS>ATOM
      1 C         -15.1309   -3.5065   18.4196 C.ar    1  UNL1        0.0852
      2 C         -13.8430   -3.3017   17.6785 C.ar    1  UNL1        0.0221
      3 C         -13.2226   -1.9374   17.6156 C.ar    1  UNL1        0.0508
      4 C         -11.9347   -1.7327   16.8745 C.ar    1  UNL1        0.1353
      5 N         -11.3143   -0.3685   16.8116 N.ar    1  UNL1       -0.2089
      6 C         -11.9818    0.7910   17.4899 C.ar    1  UNL1        0.2000
      7 N         -13.2697    0.5862   18.2310 N.ar    1  UNL1       -0.2238
      8 C         -13.8901   -0.7780   18.2939 C.ar    1  UNL1        0.0888
      9 C         -15.1781   -0.9828   19.0350 C.ar    1  UNL1        0.0574
     10 C         -15.7985   -2.3470   19.0979 C.ar    1  UNL1        0.1533
     11 C         -15.1054   -5.9515   19.2978 C.2     1  UNL1        0.2769
     12 O         -13.8391   -5.6682   20.0501 O.2     1  UNL1       -0.2674
     13 N         -15.7513   -4.8707   18.4825 N.am    1  UNL1       -0.2762
     14 H         -16.5825   -5.0567   17.9887 H       1  UNL1        0.1553
     15 C         -17.1821   -7.4630   19.6891 C.2     1  UNL1        0.0256
     16 C         -15.7259   -7.3158   19.3606 C.2     1  UNL1        0.1905
     17 F         -14.8902   -8.5328   19.0950 F       1  UNL1       -0.1997
     18 C         -17.8026   -8.8272   19.7520 C.3     1  UNL1        0.1014
     19 C         -18.5100   -9.2691   17.2914 C.3     1  UNL1        0.0899
     20 N         -17.8011   -9.7085   18.5382 N.3     1  UNL1       -0.2665
     21 C         -17.0907  -11.0291   18.5711 C.3     1  UNL1        0.0899
     22 N         -11.2671   -2.8922   16.1962 N.pl3   1  UNL1       -0.2978
     23 H         -11.1187   -2.8743   15.2231 H       1  UNL1        0.1536
     24 C         -10.8259   -4.0789   17.0006 C.ar    1  UNL1        0.0504
     25 C         -10.0474   -3.8790   18.2671 C.ar    1  UNL1        0.0170
     26 C          -9.6062   -5.0657   19.0714 C.ar    1  UNL1        0.0318
     27 C          -9.9433   -6.4523   18.6093 C.ar    1  UNL1        0.1507
     28 F          -9.5020   -7.6390   19.4137 F       1  UNL1       -0.2033
     29 C         -10.7217   -6.6523   17.3427 C.ar    1  UNL1        0.0863
     30 CL        -11.0589   -8.0389   16.8806 Cl      1  UNL1       -0.0799
     31 C         -11.1630   -5.4656   16.5384 C.ar    1  UNL1        0.0283
     32 O         -17.0864   -2.5518   19.8391 O.3     1  UNL1       -0.4752
     33 C         -18.2789   -1.6995   19.5203 C.3     1  UNL1        0.1979
     34 C         -19.2471   -1.9228   18.3965 C.3     1  UNL1        0.0782
     35 C         -20.2791   -0.8356   18.4509 C.3     1  UNL1        0.1461
     36 O         -19.9487    0.0596   19.6084 O.3     1  UNL1       -0.3498
     37 C         -18.7125   -0.4744   20.2692 C.3     1  UNL1        0.1855
@<TRIPOS>BOND
     1    19    20    1
     2    20    21    1
     3    20    18    1
     4    18    15    1
     5    15    16    2
     6    16    17    1
     7    16    11    1
     8    11    12    2
     9    11    13   am
    10    13     1    1
    11     1     2   ar
    12     2     3   ar
    13     3     4   ar
    14     4    22    1
    15    22    24    1
    16    24    25   ar
    17    25    26   ar
    18    26    27   ar
    19    27    28    1
    20    27    29   ar
    21    29    30    1
    22    29    31   ar
    23     4     5   ar
    24     5     6   ar
    25     6     7   ar
    26     7     8   ar
    27     8     9   ar
    28     9    10   ar
    29    10    32    1
    30    33    32    1
    31    33    34    1
    32    34    35    1
    33    35    36    1
    34    36    37    1
    35    10     1   ar
    36    37    33    1
    37     8     3   ar
    38    31    24   ar
    39    13    14    1
    40    22    23    1
@<TRIPOS>MOLECULE
*****
 37 40 0 0 0
SMALL
GASTEIGER

@<TRIPOS>ATOM
      1 C           2.4233    1.1825   32.4059 C.ar    1  UNL1        0.0852
      2 C           2.6162    2.1324   33.5507 C.ar    1  UNL1        0.0221
      3 C           1.7648    3.3630   33.6558 C.ar    1  UNL1        0.0508
      4 C           1.9577    4.3129   34.8005 C.ar    1  UNL1        0.1353
      5 N           1.1065    5.5434   34.9057 N.ar    1  UNL1       -0.2089
      6 C           0.0623    5.8241   33.8660 C.ar    1  UNL1        0.2000
      7 N          -0.1306    4.8742   32.7212 N.ar    1  UNL1       -0.2238
      8 C           0.7207    3.6437   32.6161 C.ar    1  UNL1        0.0888
      9 C           0.5278    2.6938   31.4713 C.ar    1  UNL1        0.0574
     10 C           1.3790    1.4632   31.3662 C.ar    1  UNL1        0.1533
     11 C           4.4345   -0.0786   31.3502 C.2     1  UNL1        0.2769
     12 O           4.7432    1.1214   30.5049 O.2     1  UNL1       -0.2674
     13 N           3.2745   -0.0480   32.3008 N.am    1  UNL1       -0.2762
     14 H           3.0719   -0.8356   32.8556 H       1  UNL1        0.1553
     15 C           5.4418   -2.2166   32.4293 C.2     1  UNL1        0.0256
     16 C           5.2858   -1.3092   31.2451 C.2     1  UNL1        0.1905
     17 F           5.9810   -1.6324   29.9559 F       1  UNL1       -0.1997
     18 C           6.2930   -3.4472   32.3243 C.3     1  UNL1        0.1014
     19 C           8.6007   -2.3222   32.7228 C.3     1  UNL1        0.0899
     20 N           7.7519   -3.3243   31.9981 N.3     1  UNL1       -0.2665
     21 C           8.3621   -4.2037   30.9472 C.3     1  UNL1        0.0899
     22 N           3.0020    4.0322   35.8402 N.pl3   1  UNL1       -0.2978
     23 H           3.8566    4.5206   35.8240 H       1  UNL1        0.1536
     24 C           2.7440    3.0073   36.9047 C.ar    1  UNL1        0.0504
     25 C           3.6098    1.7858   36.9954 C.ar    1  UNL1        0.0170
     26 C           3.3518    0.7609   38.0598 C.ar    1  UNL1        0.0318
     27 C           2.2280    0.9575   39.0336 C.ar    1  UNL1        0.1507
     28 F           1.9700   -0.0674   40.0980 F       1  UNL1       -0.2033
     29 C           1.3621    2.1790   38.9429 C.ar    1  UNL1        0.0863
     30 CL          0.2382    2.3756   39.9167 Cl      1  UNL1       -0.0799
     31 C           1.6201    3.2039   37.8785 C.ar    1  UNL1        0.0283
     32 O           1.1861    0.5134   30.2214 O.3     1  UNL1       -0.4752
     33 C           0.7533    1.0313   28.8819 C.3     1  UNL1        0.1979
     34 C          -0.6203    0.9101   28.2916 C.3     1  UNL1        0.0782
     35 C          -0.6045    1.5653   26.9423 C.3     1  UNL1        0.1461
     36 O           0.7790    2.0913   26.6987 O.3     1  UNL1       -0.3498
     37 C           1.6181    1.7613   27.8975 C.3     1  UNL1        0.1855
@<TRIPOS>BOND
     1    19    20    1
     2    20    21    1
     3    20    18    1
     4    18    15    1
     5    15    16    2
     6    16    17    1
     7    16    11    1
     8    11    12    2
     9    11    13   am
    10    13     1    1
    11     1     2   ar
    12     2     3   ar
    13     3     4   ar
    14     4    22    1
    15    22    24    1
    16    24    25   ar
    17    25    26   ar
    18    26    27   ar
    19    27    28    1
    20    27    29   ar
    21    29    30    1
    22    29    31   ar
    23     4     5   ar
    24     5     6   ar
    25     6     7   ar
    26     7     8   ar
    27     8     9   ar
    28     9    10   ar
    29    10    32    1
    30    33    32    1
    31    33    34    1
    32    34    35    1
    33    35    36    1
    34    36    37    1
    35    10     1   ar
    36    37    33    1
    37     8     3   ar
    38    31    24   ar
    39    13    14    1
    40    22    23    1
@<TRIPOS>MOLECULE
*****
 37 40 0 0 0
SMALL
GASTEIGER

@<TRIPOS>ATOM
      1 C           5.2819   -2.3452   25.2071 C.ar    1  UNL1        0.0852
      2 C           4.8845   -2.7350   23.8142 C.ar    1  UNL1        0.0221
      3 C           5.9055   -3.3053   22.8749 C.ar    1  UNL1        0.0508
      4 C           5.5081   -3.6952   21.4820 C.ar    1  UNL1        0.1353
      5 N           6.5291   -4.2654   20.5426 N.ar    1  UNL1       -0.2089
      6 C           7.9474   -4.4458   20.9962 C.ar    1  UNL1        0.2000
      7 N           8.3448   -4.0560   22.3890 N.ar    1  UNL1       -0.2238
      8 C           7.3239   -3.4857   23.3284 C.ar    1  UNL1        0.0888
      9 C           7.7213   -3.0959   24.7212 C.ar    1  UNL1        0.0574
     10 C           6.7003   -2.5256   25.6606 C.ar    1  UNL1        0.1533
     11 C           4.1867   -0.2925   26.3635 C.2     1  UNL1        0.2769
     12 O           5.1334    0.6196   25.6412 O.2     1  UNL1       -0.2674
     13 N           4.2609   -1.7749   26.1464 N.am    1  UNL1       -0.2762
     14 H           3.6396   -2.3735   26.6205 H       1  UNL1        0.1553
     15 C           2.3041   -0.6386   28.1202 C.2     1  UNL1        0.0256
     16 C           3.1657    0.2777   27.3029 C.2     1  UNL1        0.1905
     17 F           3.0063    1.7642   27.4249 F       1  UNL1       -0.1997
     18 C           1.2831   -0.0684   29.0596 C.3     1  UNL1        0.1014
     19 C          -1.2454   -0.6130   28.8141 C.3     1  UNL1        0.0899
     20 N          -0.0810    0.2960   28.5534 N.3     1  UNL1       -0.2665
     21 C          -0.2809    1.5695   27.7863 C.3     1  UNL1        0.0899
     22 N           4.0897   -3.5148   21.0285 N.pl3   1  UNL1       -0.2978
     23 H           3.4180   -4.2070   21.2256 H       1  UNL1        0.1536
     24 C           3.6947   -2.2796   20.2746 C.ar    1  UNL1        0.0504
     25 C           2.9819   -1.1652   20.9816 C.ar    1  UNL1        0.0170
     26 C           2.5869    0.0700   20.2278 C.ar    1  UNL1        0.0318
     27 C           2.9047    0.1907   18.7668 C.ar    1  UNL1        0.1507
     28 F           2.5098    1.4259   18.0129 F       1  UNL1       -0.2033
     29 C           3.6176   -0.9237   18.0597 C.ar    1  UNL1        0.0863
     30 CL          3.9354   -0.8029   16.5988 Cl      1  UNL1       -0.0799
     31 C           4.0126   -2.1589   18.8136 C.ar    1  UNL1        0.0283
     32 O           7.0977   -2.1357   27.0535 O.3     1  UNL1       -0.4752
     33 C           6.9236   -3.1074   28.1828 C.3     1  UNL1        0.1979
     34 C           7.1203   -2.8102   29.6399 C.3     1  UNL1        0.0782
     35 C           6.8405   -4.0661   30.4110 C.3     1  UNL1        0.1461
     36 O           6.4708   -5.1394   29.4304 O.3     1  UNL1       -0.3498
     37 C           6.5222   -4.5469   28.0534 C.3     1  UNL1        0.1855
@<TRIPOS>BOND
     1    19    20    1
     2    20    21    1
     3    20    18    1
     4    18    15    1
     5    15    16    2
     6    16    17    1
     7    16    11    1
     8    11    12    2
     9    11    13   am
    10    13     1    1
    11     1     2   ar
    12     2     3   ar
    13     3     4   ar
    14     4    22    1
    15    22    24    1
    16    24    25   ar
    17    25    26   ar
    18    26    27   ar
    19    27    28    1
    20    27    29   ar
    21    29    30    1
    22    29    31   ar
    23     4     5   ar
    24     5     6   ar
    25     6     7   ar
    26     7     8   ar
    27     8     9   ar
    28     9    10   ar
    29    10    32    1
    30    33    32    1
    31    33    34    1
    32    34    35    1
    33    35    36    1
    34    36    37    1
    35    10     1   ar
    36    37    33    1
    37     8     3   ar
    38    31    24   ar
    39    13    14    1
    40    22    23    1
@<TRIPOS>MOLECULE
*****
 37 40 0 0 0
SMALL
GASTEIGER

@<TRIPOS>ATOM
      1 C           6.3784   -4.0525   26.4576 C.ar    1  UNL1        0.0852
      2 C           6.8515   -3.8731   25.0455 C.ar    1  UNL1        0.0221
      3 C           7.5142   -5.0106   24.3264 C.ar    1  UNL1        0.0508
      4 C           7.9873   -4.8313   22.9143 C.ar    1  UNL1        0.1353
      5 N           8.6500   -5.9686   22.1951 N.ar    1  UNL1       -0.2089
      6 C           8.8394   -7.2854   22.8881 C.ar    1  UNL1        0.2000
      7 N           8.3663   -7.4648   24.3001 N.ar    1  UNL1       -0.2238
      8 C           7.7037   -6.3274   25.0193 C.ar    1  UNL1        0.0888
      9 C           7.2305   -6.5068   26.4314 C.ar    1  UNL1        0.0574
     10 C           6.5679   -5.3694   27.1505 C.ar    1  UNL1        0.1533
     11 C           6.5424   -1.9426   27.9646 C.2     1  UNL1        0.2769
     12 O           8.0317   -2.1074   28.0333 O.2     1  UNL1       -0.2674
     13 N           5.7158   -2.9151   27.1768 N.am    1  UNL1       -0.2762
     14 H           4.7383   -2.8069   27.1317 H       1  UNL1        0.1553
     15 C           5.5465   -0.9315   30.1408 C.2     1  UNL1        0.0256
     16 C           5.8797   -0.8051   28.6838 C.2     1  UNL1        0.1905
     17 F           5.5503    0.4586   27.9459 F       1  UNL1       -0.1997
     18 C           4.8838    0.2059   30.8600 C.3     1  UNL1        0.1014
     19 C           2.4815   -0.6099   30.3001 C.3     1  UNL1        0.0899
     20 N           3.4253    0.1291   31.2018 N.3     1  UNL1       -0.2665
     21 C           2.9106    0.7912   32.4454 C.3     1  UNL1        0.0899
     22 N           7.7978   -3.5144   22.2214 N.pl3   1  UNL1       -0.2978
     23 H           8.5419   -2.8714   22.1742 H       1  UNL1        0.1536
     24 C           6.4747   -3.1772   21.6004 C.ar    1  UNL1        0.0504
     25 C           5.7136   -1.9712   22.0653 C.ar    1  UNL1        0.0170
     26 C           4.3904   -1.6341   21.4443 C.ar    1  UNL1        0.0318
     27 C           3.8284   -2.5029   20.3585 C.ar    1  UNL1        0.1507
     28 F           2.5052   -2.1658   19.7375 F       1  UNL1       -0.2033
     29 C           4.5895   -3.7090   19.8935 C.ar    1  UNL1        0.0863
     30 CL          4.0275   -4.5779   18.8077 Cl      1  UNL1       -0.0799
     31 C           5.9126   -4.0462   20.5145 C.ar    1  UNL1        0.0283
     32 O           6.0947   -5.5488   28.5626 O.3     1  UNL1       -0.4752
     33 C           7.0489   -5.3552   29.7036 C.3     1  UNL1        0.1979
     34 C           8.2802   -6.1690   29.9711 C.3     1  UNL1        0.0782
     35 C           8.9317   -5.6306   31.2103 C.3     1  UNL1        0.1461
     36 O           8.1029   -4.4839   31.7087 O.3     1  UNL1       -0.3498
     37 C           6.9394   -4.3137   30.7775 C.3     1  UNL1        0.1855
@<TRIPOS>BOND
     1    19    20    1
     2    20    21    1
     3    20    18    1
     4    18    15    1
     5    15    16    2
     6    16    17    1
     7    16    11    1
     8    11    12    2
     9    11    13   am
    10    13     1    1
    11     1     2   ar
    12     2     3   ar
    13     3     4   ar
    14     4    22    1
    15    22    24    1
    16    24    25   ar
    17    25    26   ar
    18    26    27   ar
    19    27    28    1
    20    27    29   ar
    21    29    30    1
    22    29    31   ar
    23     4     5   ar
    24     5     6   ar
    25     6     7   ar
    26     7     8   ar
    27     8     9   ar
    28     9    10   ar
    29    10    32    1
    30    33    32    1
    31    33    34    1
    32    34    35    1
    33    35    36    1
    34    36    37    1
    35    10     1   ar
    36    37    33    1
    37     8     3   ar
    38    31    24   ar
    39    13    14    1
    40    22    23    1
@<TRIPOS>MOLECULE
*****
 37 40 0 0 0
SMALL
GASTEIGER

@<TRIPOS>ATOM
      1 C           2.3111   -0.0845   22.3529 C.ar    1  UNL1        0.0852
      2 C           2.6317    0.3116   23.7637 C.ar    1  UNL1        0.0221
      3 C           3.6424   -0.4689   24.5506 C.ar    1  UNL1        0.0508
      4 C           3.9630   -0.0728   25.9614 C.ar    1  UNL1        0.1353
      5 N           4.9737   -0.8532   26.7484 N.ar    1  UNL1       -0.2089
      6 C           5.6638   -2.0298   26.1245 C.ar    1  UNL1        0.2000
      7 N           5.3433   -2.4259   24.7137 N.ar    1  UNL1       -0.2238
      8 C           4.3326   -1.6455   23.9268 C.ar    1  UNL1        0.0888
      9 C           4.0121   -2.0416   22.5160 C.ar    1  UNL1        0.0574
     10 C           3.0014   -1.2611   21.7291 C.ar    1  UNL1        0.1533
     11 C           1.7328    1.8854   20.7608 C.2     1  UNL1        0.2769
     12 O           3.1758    2.2944   20.7425 O.2     1  UNL1       -0.2674
     13 N           1.3004    0.6960   21.5660 N.am    1  UNL1       -0.2762
     14 H           0.3533    0.4276   21.5780 H       1  UNL1        0.1553
     15 C          -0.6969    2.7524   20.4525 C.2     1  UNL1        0.0256
     16 C           0.7220    2.6659   19.9738 C.2     1  UNL1        0.1905
     17 F           1.1301    3.3598   18.7082 F       1  UNL1       -0.1997
     18 C          -1.7077    3.5328   19.6657 C.3     1  UNL1        0.1014
     19 C          -3.4511    3.5002   21.5917 C.3     1  UNL1        0.0899
     20 N          -3.1330    3.5955   20.1289 N.3     1  UNL1       -0.2665
     21 C          -4.2402    3.7534   19.1294 C.3     1  UNL1        0.0899
     22 N           3.2727    1.1039   26.5853 N.pl3   1  UNL1       -0.2978
     23 H           3.7051    1.9884   26.5791 H       1  UNL1        0.1536
     24 C           1.9237    0.9329   27.2186 C.ar    1  UNL1        0.0504
     25 C           1.7255   -0.0913   28.2963 C.ar    1  UNL1        0.0170
     26 C           0.3765   -0.2623   28.9296 C.ar    1  UNL1        0.0318
     27 C          -0.7742    0.5909   28.4851 C.ar    1  UNL1        0.1507
     28 F          -2.1232    0.4200   29.1183 F       1  UNL1       -0.2033
     29 C          -0.5761    1.6153   27.4073 C.ar    1  UNL1        0.0863
     30 CL         -1.7268    2.4685   26.9628 Cl      1  UNL1       -0.0799
     31 C           0.7729    1.7862   26.7740 C.ar    1  UNL1        0.0283
     32 O           2.6809   -1.6573   20.3183 O.3     1  UNL1       -0.4752
     33 C           3.5992   -2.5781   19.5708 C.3     1  UNL1        0.1979
     34 C           3.4768   -4.0709   19.4902 C.3     1  UNL1        0.0782
     35 C           4.6031   -4.5832   18.6422 C.3     1  UNL1        0.1461
     36 O           5.4215   -3.4069   18.1987 O.3     1  UNL1       -0.3498
     37 C           4.8010   -2.1677   18.7726 C.3     1  UNL1        0.1855
@<TRIPOS>BOND
     1    19    20    1
     2    20    21    1
     3    20    18    1
     4    18    15    1
     5    15    16    2
     6    16    17    1
     7    16    11    1
     8    11    12    2
     9    11    13   am
    10    13     1    1
    11     1     2   ar
    12     2     3   ar
    13     3     4   ar
    14     4    22    1
    15    22    24    1
    16    24    25   ar
    17    25    26   ar
    18    26    27   ar
    19    27    28    1
    20    27    29   ar
    21    29    30    1
    22    29    31   ar
    23     4     5   ar
    24     5     6   ar
    25     6     7   ar
    26     7     8   ar
    27     8     9   ar
    28     9    10   ar
    29    10    32    1
    30    33    32    1
    31    33    34    1
    32    34    35    1
    33    35    36    1
    34    36    37    1
    35    10     1   ar
    36    37    33    1
    37     8     3   ar
    38    31    24   ar
    39    13    14    1
    40    22    23    1
@<TRIPOS>MOLECULE
*****
 37 40 0 0 0
SMALL
GASTEIGER

@<TRIPOS>ATOM
      1 C           4.0079   -1.2772   23.8862 C.ar    1  UNL1        0.0852
      2 C           3.1736   -1.2390   22.6402 C.ar    1  UNL1        0.0221
      3 C           3.8123   -1.4687   21.3025 C.ar    1  UNL1        0.0508
      4 C           2.9780   -1.4305   20.0566 C.ar    1  UNL1        0.1353
      5 N           3.6166   -1.6601   18.7189 N.ar    1  UNL1       -0.2089
      6 C           5.0896   -1.9279   18.6272 C.ar    1  UNL1        0.2000
      7 N           5.9240   -1.9661   19.8732 N.ar    1  UNL1       -0.2238
      8 C           5.2853   -1.7365   21.2108 C.ar    1  UNL1        0.0888
      9 C           6.1197   -1.7747   22.4568 C.ar    1  UNL1        0.0574
     10 C           5.4810   -1.5451   23.7944 C.ar    1  UNL1        0.1533
     11 C           3.3910    0.3196   25.8405 C.2     1  UNL1        0.2769
     12 O           4.0515    1.4571   25.1196 O.2     1  UNL1       -0.2674
     13 N           3.3693   -1.0476   25.2238 N.am    1  UNL1       -0.2762
     14 H           2.9358   -1.7942   25.6970 H       1  UNL1        0.1553
     15 C           2.4656   -0.6133   28.0818 C.2     1  UNL1        0.0256
     16 C           2.7523    0.5492   27.1782 C.2     1  UNL1        0.1905
     17 F           2.4004    1.9412   27.6123 F       1  UNL1       -0.1997
     18 C           1.8269   -0.3837   29.4195 C.3     1  UNL1        0.1014
     19 C          -0.7097   -0.3488   28.8588 C.3     1  UNL1        0.0899
     20 N           0.4864    0.2839   29.5059 N.3     1  UNL1       -0.2665
     21 C           0.3421    1.5842   30.2396 C.3     1  UNL1        0.0899
     22 N           1.5049   -1.1626   20.1483 N.pl3   1  UNL1       -0.2978
     23 H           0.8837   -1.8957   20.3625 H       1  UNL1        0.1536
     24 C           0.9784    0.2222   19.9136 C.ar    1  UNL1        0.0504
     25 C           1.1122    0.8562   18.5609 C.ar    1  UNL1        0.0170
     26 C           0.5857    2.2410   18.3262 C.ar    1  UNL1        0.0318
     27 C          -0.0747    2.9918   19.4443 C.ar    1  UNL1        0.1507
     28 F          -0.6012    4.3766   19.2096 F       1  UNL1       -0.2033
     29 C          -0.2086    2.3577   20.7972 C.ar    1  UNL1        0.0863
     30 CL         -0.8690    3.1085   21.9152 Cl      1  UNL1       -0.0799
     31 C           0.3179    0.9729   21.0318 C.ar    1  UNL1        0.0283
     32 O           6.3154   -1.5832   25.0404 O.3     1  UNL1       -0.4752
     33 C           6.4486   -2.8608   25.8149 C.3     1  UNL1        0.1979
     34 C           6.7757   -4.2085   25.2432 C.3     1  UNL1        0.0782
     35 C           6.8074   -5.1957   26.3722 C.3     1  UNL1        0.1461
     36 O           6.4998   -4.4580   27.6416 O.3     1  UNL1       -0.3498
     37 C           6.2781   -3.0151   27.2972 C.3     1  UNL1        0.1855
@<TRIPOS>BOND
     1    19    20    1
     2    20    21    1
     3    20    18    1
     4    18    15    1
     5    15    16    2
     6    16    17    1
     7    16    11    1
     8    11    12    2
     9    11    13   am
    10    13     1    1
    11     1     2   ar
    12     2     3   ar
    13     3     4   ar
    14     4    22    1
    15    22    24    1
    16    24    25   ar
    17    25    26   ar
    18    26    27   ar
    19    27    28    1
    20    27    29   ar
    21    29    30    1
    22    29    31   ar
    23     4     5   ar
    24     5     6   ar
    25     6     7   ar
    26     7     8   ar
    27     8     9   ar
    28     9    10   ar
    29    10    32    1
    30    33    32    1
    31    33    34    1
    32    34    35    1
    33    35    36    1
    34    36    37    1
    35    10     1   ar
    36    37    33    1
    37     8     3   ar
    38    31    24   ar
    39    13    14    1
    40    22    23    1
@<TRIPOS>MOLECULE
*****
 37 40 0 0 0
SMALL
GASTEIGER

@<TRIPOS>ATOM
      1 C           0.3042    1.7060   23.6371 C.ar    1  UNL1        0.0852
      2 C           0.7059    0.8245   22.4919 C.ar    1  UNL1        0.0221
      3 C           0.5729    1.3191   21.0820 C.ar    1  UNL1        0.0508
      4 C           0.9746    0.4376   19.9368 C.ar    1  UNL1        0.1353
      5 N           0.8416    0.9322   18.5270 N.ar    1  UNL1       -0.2089
      6 C           0.3068    2.3084   18.2624 C.ar    1  UNL1        0.2000
      7 N          -0.0949    3.1900   19.4076 N.ar    1  UNL1       -0.2238
      8 C           0.0381    2.6953   20.8174 C.ar    1  UNL1        0.0888
      9 C          -0.3636    3.5769   21.9626 C.ar    1  UNL1        0.0574
     10 C          -0.2306    3.0823   23.3724 C.ar    1  UNL1        0.1533
     11 C           1.7247    1.4060   25.7916 C.2     1  UNL1        0.2769
     12 O           2.8791    2.0952   25.1266 O.2     1  UNL1       -0.2674
     13 N           0.4372    1.2114   25.0469 N.am    1  UNL1       -0.2762
     14 H          -0.3204    0.7591   25.4834 H       1  UNL1        0.1553
     15 C           0.6366    0.5041   27.9718 C.2     1  UNL1        0.0256
     16 C           1.8577    0.9113   27.2015 C.2     1  UNL1        0.1905
     17 F           3.2116    0.8239   27.8411 F       1  UNL1       -0.1997
     18 C           0.7696    0.0095   29.3816 C.3     1  UNL1        0.1014
     19 C           2.5420    0.6033   31.1860 C.3     1  UNL1        0.0899
     20 N           1.2735    0.9286   30.4545 N.3     1  UNL1       -0.2665
     21 C           0.5090    2.1731   30.7961 C.3     1  UNL1        0.0899
     22 N           1.5094   -0.9387   20.2015 N.pl3   1  UNL1       -0.2978
     23 H           0.9998   -1.5649   20.7650 H       1  UNL1        0.1536
     24 C           2.8205   -1.3609   19.6077 C.ar    1  UNL1        0.0504
     25 C           3.8255   -0.3261   19.1965 C.ar    1  UNL1        0.0170
     26 C           5.1366   -0.7483   18.6026 C.ar    1  UNL1        0.0318
     27 C           5.4427   -2.2053   18.4199 C.ar    1  UNL1        0.1507
     28 F           6.7539   -2.6275   17.8260 F       1  UNL1       -0.2033
     29 C           4.4377   -3.2402   18.8311 C.ar    1  UNL1        0.0863
     30 CL          4.7438   -4.6972   18.6484 Cl      1  UNL1       -0.0799
     31 C           3.1266   -2.8180   19.4249 C.ar    1  UNL1        0.0283
     32 O          -0.6323    3.9639   24.5176 O.3     1  UNL1       -0.4752
     33 C          -2.0199    3.8767   25.0803 C.3     1  UNL1        0.1979
     34 C          -2.3970    4.0288   26.5241 C.3     1  UNL1        0.0782
     35 C          -3.8843    3.8682   26.6342 C.3     1  UNL1        0.1461
     36 O          -4.4265    3.6168   25.2583 O.3     1  UNL1       -0.3498
     37 C          -3.2742    3.6221   24.2980 C.3     1  UNL1        0.1855
@<TRIPOS>BOND
     1    19    20    1
     2    20    21    1
     3    20    18    1
     4    18    15    1
     5    15    16    2
     6    16    17    1
     7    16    11    1
     8    11    12    2
     9    11    13   am
    10    13     1    1
    11     1     2   ar
    12     2     3   ar
    13     3     4   ar
    14     4    22    1
    15    22    24    1
    16    24    25   ar
    17    25    26   ar
    18    26    27   ar
    19    27    28    1
    20    27    29   ar
    21    29    30    1
    22    29    31   ar
    23     4     5   ar
    24     5     6   ar
    25     6     7   ar
    26     7     8   ar
    27     8     9   ar
    28     9    10   ar
    29    10    32    1
    30    33    32    1
    31    33    34    1
    32    34    35    1
    33    35    36    1
    34    36    37    1
    35    10     1   ar
    36    37    33    1
    37     8     3   ar
    38    31    24   ar
    39    13    14    1
    40    22    23    1
@<TRIPOS>MOLECULE
*****
 37 40 0 0 0
SMALL
GASTEIGER

@<TRIPOS>ATOM
      1 C           4.0574   -1.4410   28.0017 C.ar    1  UNL1        0.0852
      2 C           2.6670   -0.8795   27.9618 C.ar    1  UNL1        0.0221
      3 C           2.1730   -0.0192   29.0869 C.ar    1  UNL1        0.0508
      4 C           0.7826    0.5423   29.0470 C.ar    1  UNL1        0.1353
      5 N           0.2886    1.4025   30.1721 N.ar    1  UNL1       -0.2089
      6 C           1.1849    1.7012   31.3371 C.ar    1  UNL1        0.2000
      7 N           2.5753    1.1397   31.3770 N.ar    1  UNL1       -0.2238
      8 C           3.0693    0.2795   30.2519 C.ar    1  UNL1        0.0888
      9 C           4.4597   -0.2820   30.2918 C.ar    1  UNL1        0.0574
     10 C           4.9537   -1.1422   29.1667 C.ar    1  UNL1        0.1533
     11 C           5.1075   -1.6672   25.6361 C.2     1  UNL1        0.2769
     12 O           5.1695   -0.1730   25.5207 O.2     1  UNL1       -0.2674
     13 N           4.5514   -2.3012   26.8766 N.am    1  UNL1       -0.2762
     14 H           4.5107   -3.2820   26.9523 H       1  UNL1        0.1553
     15 C           4.6912   -2.8610   23.3663 C.2     1  UNL1        0.0256
     16 C           5.6015   -2.5275   24.5109 C.2     1  UNL1        0.1905
     17 F           7.0058   -3.0544   24.5305 F       1  UNL1       -0.1997
     18 C           5.1852   -3.7212   22.2412 C.3     1  UNL1        0.1014
     19 C           7.5465   -3.9843   21.1900 C.3     1  UNL1        0.0899
     20 N           6.2651   -3.2174   21.3301 N.3     1  UNL1       -0.2665
     21 C           6.0635   -1.9466   20.5592 C.3     1  UNL1        0.0899
     22 N          -0.1137    0.2435   27.8820 N.pl3   1  UNL1       -0.2978
     23 H          -0.5421   -0.6396   27.8042 H       1  UNL1        0.1536
     24 C          -0.3575    1.2901   26.8354 C.ar    1  UNL1        0.0504
     25 C           0.3537    1.2123   25.5171 C.ar    1  UNL1        0.0170
     26 C           0.1100    2.2590   24.4706 C.ar    1  UNL1        0.0318
     27 C          -0.8449    3.3833   24.7424 C.ar    1  UNL1        0.1507
     28 F          -1.0886    4.4300   23.6959 F       1  UNL1       -0.2033
     29 C          -1.5561    3.4611   26.0609 C.ar    1  UNL1        0.0863
     30 CL         -2.5110    4.5855   26.3327 Cl      1  UNL1       -0.0799
     31 C          -1.3124    2.4145   27.1074 C.ar    1  UNL1        0.0283
     32 O           6.3441   -1.7037   29.2067 O.3     1  UNL1       -0.4752
     33 C           6.5845   -3.0717   29.7728 C.3     1  UNL1        0.1979
     34 C           6.8442   -4.3199   28.9825 C.3     1  UNL1        0.0782
     35 C           7.0277   -5.4514   29.9499 C.3     1  UNL1        0.1461
     36 O           6.8813   -4.9025   31.3383 O.3     1  UNL1       -0.3498
     37 C           6.6075   -3.4318   31.2288 C.3     1  UNL1        0.1855
@<TRIPOS>BOND
     1    19    20    1
     2    20    21    1
     3    20    18    1
     4    18    15    1
     5    15    16    2
     6    16    17    1
     7    16    11    1
     8    11    12    2
     9    11    13   am
    10    13     1    1
    11     1     2   ar
    12     2     3   ar
    13     3     4   ar
    14     4    22    1
    15    22    24    1
    16    24    25   ar
    17    25    26   ar
    18    26    27   ar
    19    27    28    1
    20    27    29   ar
    21    29    30    1
    22    29    31   ar
    23     4     5   ar
    24     5     6   ar
    25     6     7   ar
    26     7     8   ar
    27     8     9   ar
    28     9    10   ar
    29    10    32    1
    30    33    32    1
    31    33    34    1
    32    34    35    1
    33    35    36    1
    34    36    37    1
    35    10     1   ar
    36    37    33    1
    37     8     3   ar
    38    31    24   ar
    39    13    14    1
    40    22    23    1
