@<TRIPOS>MOLECULE
*****
 24 26 0 0 0
SMALL
GASTEIGER

@<TRIPOS>ATOM
      1 C          -9.2730  -18.6524   21.3206 C.ar    1  UNL1        0.0170
      2 C          -9.3380  -19.4236   20.0357 C.ar    1  UNL1        0.0011
      3 C          -8.0864  -19.9989   19.4421 C.ar    1  UNL1       -0.0045
      4 C          -6.7697  -19.8029   20.1333 C.ar    1  UNL1       -0.0247
      5 C          -6.7046  -19.0316   21.4182 C.ar    1  UNL1       -0.0246
      6 C          -7.9562  -18.4564   22.0118 C.ar    1  UNL1       -0.0030
      7 C          -5.2742  -19.0016   21.8688 C.3     1  UNL1        0.0438
      8 C          -4.4552  -19.7542   20.8624 C.3     1  UNL1        0.0838
      9 C          -5.3794  -20.2495   19.7898 C.3     1  UNL1        0.0437
     10 C         -10.7541  -20.1606   23.4493 C.3     1  UNL1        0.0326
     11 C         -11.2652  -18.8312   22.9786 C.ar    1  UNL1       -0.0042
     12 C         -12.5168  -18.2560   23.5723 C.ar    1  UNL1       -0.0012
     13 C         -13.0280  -16.9266   23.1016 C.ar    1  UNL1        0.0204
     14 C         -12.2874  -16.1724   22.0372 C.ar    1  UNL1        0.0988
     15 N         -11.0357  -16.7477   21.4435 N.ar    1  UNL1       -0.2442
     16 C         -10.5247  -18.0771   21.9142 C.ar    1  UNL1        0.0773
     17 N          -2.9723  -19.9732   20.9188 N.3     1  UNL1       -0.1841
     18 H          -2.7428  -20.6285   20.1716 H       1  UNL1        0.1484
     19 S          -2.0365  -18.8096   20.7769 S.O2    1  UNL1        0.0390
     20 O          -2.3406  -18.7440   19.3095 O.2     1  UNL1       -0.1576
     21 O          -1.7324  -18.8752   22.2443 O.2     1  UNL1       -0.1576
     22 C          -1.1006  -17.6459   20.6349 C.3     1  UNL1        0.1457
     23 C          -1.4557  -16.3198   21.2395 C.3     1  UNL1        0.0270
     24 C           0.1903  -17.8084   19.8885 C.3     1  UNL1        0.0270
@<TRIPOS>BOND
     1    10    11    1
     2    11    12   ar
     3    12    13   ar
     4    13    14   ar
     5    14    15   ar
     6    15    16   ar
     7    16     1    1
     8     1     2   ar
     9     2     3   ar
    10     3     4   ar
    11     4     5   ar
    12     5     6   ar
    13     5     7    1
    14     7     8    1
    15     8    17    1
    16    17    19    1
    17    19    20    2
    18    19    21    2
    19    19    22    1
    20    22    23    1
    21    22    24    1
    22     8     9    1
    23    16    11   ar
    24     6     1   ar
    25     9     4    1
    26    17    18    1
@<TRIPOS>MOLECULE
*****
 24 26 0 0 0
SMALL
GASTEIGER

@<TRIPOS>ATOM
      1 C          -8.8774  -16.7894   23.5532 C.ar    1  UNL1        0.0170
      2 C          -8.4343  -15.6002   24.3528 C.ar    1  UNL1        0.0011
      3 C          -6.9718  -15.3237   24.5381 C.ar    1  UNL1       -0.0045
      4 C          -5.9522  -16.2364   23.9237 C.ar    1  UNL1       -0.0247
      5 C          -6.3952  -17.4256   23.1241 C.ar    1  UNL1       -0.0246
      6 C          -7.8578  -17.7022   22.9388 C.ar    1  UNL1       -0.0030
      7 C          -5.1692  -18.1424   22.6413 C.3     1  UNL1        0.0438
      8 C          -3.9684  -17.3962   23.1426 C.3     1  UNL1        0.0838
      9 C          -4.4523  -16.2182   23.9352 C.3     1  UNL1        0.0437
     10 C         -10.1995  -18.9810   25.1182 C.3     1  UNL1        0.0326
     11 C         -11.0011  -18.1618   24.1504 C.ar    1  UNL1       -0.0042
     12 C         -12.4637  -18.4384   23.9652 C.ar    1  UNL1       -0.0012
     13 C         -13.2652  -17.6192   22.9975 C.ar    1  UNL1        0.0204
     14 C         -12.6042  -16.5234   22.2150 C.ar    1  UNL1        0.0988
     15 N         -11.1415  -16.2468   22.4002 N.ar    1  UNL1       -0.2442
     16 C         -10.3400  -17.0660   23.3680 C.ar    1  UNL1        0.0773
     17 N          -2.5353  -17.7635   22.8948 N.3     1  UNL1       -0.1841
     18 H          -2.3725  -18.6513   23.3700 H       1  UNL1        0.1484
     19 S          -2.0348  -17.9260   21.4902 S.O2    1  UNL1        0.0390
     20 O          -2.3487  -16.4859   21.2118 O.2     1  UNL1       -0.1576
     21 O          -1.7209  -19.3661   21.7686 O.2     1  UNL1       -0.1576
     22 C          -1.5343  -18.0885   20.0855 C.3     1  UNL1        0.1457
     23 C          -2.4820  -18.4863   18.9929 C.3     1  UNL1        0.0270
     24 C          -0.0862  -17.8531   19.7733 C.3     1  UNL1        0.0270
@<TRIPOS>BOND
     1    10    11    1
     2    11    12   ar
     3    12    13   ar
     4    13    14   ar
     5    14    15   ar
     6    15    16   ar
     7    16     1    1
     8     1     2   ar
     9     2     3   ar
    10     3     4   ar
    11     4     5   ar
    12     5     6   ar
    13     5     7    1
    14     7     8    1
    15     8    17    1
    16    17    19    1
    17    19    20    2
    18    19    21    2
    19    19    22    1
    20    22    23    1
    21    22    24    1
    22     8     9    1
    23    16    11   ar
    24     6     1   ar
    25     9     4    1
    26    17    18    1
@<TRIPOS>MOLECULE
*****
 24 26 0 0 0
SMALL
GASTEIGER

@<TRIPOS>ATOM
      1 C          -9.3094  -19.2188   22.3293 C.ar    1  UNL1        0.0170
      2 C          -8.7412  -20.3235   23.1700 C.ar    1  UNL1        0.0011
      3 C          -7.3386  -20.7998   22.9341 C.ar    1  UNL1       -0.0045
      4 C          -6.5041  -20.1713   21.8577 C.ar    1  UNL1       -0.0247
      5 C          -7.0723  -19.0667   21.0170 C.ar    1  UNL1       -0.0246
      6 C          -8.4750  -18.5904   21.2528 C.ar    1  UNL1       -0.0030
      7 C          -6.0195  -18.6418   20.0367 C.3     1  UNL1        0.0438
      8 C          -4.8006  -19.4839   20.2715 C.3     1  UNL1        0.0838
      9 C          -5.1000  -20.4292   21.3969 C.3     1  UNL1        0.0437
     10 C         -11.0047  -18.3417   20.0148 C.3     1  UNL1        0.0326
     11 C         -11.5598  -18.3039   21.4079 C.ar    1  UNL1       -0.0042
     12 C         -12.9624  -17.8276   21.6436 C.ar    1  UNL1       -0.0012
     13 C         -13.5175  -17.7898   23.0366 C.ar    1  UNL1        0.0204
     14 C         -12.6699  -18.2283   24.1939 C.ar    1  UNL1        0.0988
     15 N         -11.2672  -18.7047   23.9581 N.ar    1  UNL1       -0.2442
     16 C         -10.7122  -18.7424   22.5651 C.ar    1  UNL1        0.0773
     17 N          -3.5089  -19.3961   19.5138 N.3     1  UNL1       -0.1841
     18 H          -3.7464  -19.1383   18.5559 H       1  UNL1        0.1484
     19 S          -2.4380  -18.4475   19.9647 S.O2    1  UNL1        0.0390
     20 O          -1.7922  -19.5500   20.7504 O.2     1  UNL1       -0.1576
     21 O          -3.0838  -17.3449   19.1789 O.2     1  UNL1       -0.1576
     22 C          -1.3671  -17.4989   20.4155 C.3     1  UNL1        0.1457
     23 C           0.0451  -17.6832   19.9443 C.3     1  UNL1        0.0270
     24 C          -1.7082  -16.3660   21.3375 C.3     1  UNL1        0.0270
@<TRIPOS>BOND
     1    10    11    1
     2    11    12   ar
     3    12    13   ar
     4    13    14   ar
     5    14    15   ar
     6    15    16   ar
     7    16     1    1
     8     1     2   ar
     9     2     3   ar
    10     3     4   ar
    11     4     5   ar
    12     5     6   ar
    13     5     7    1
    14     7     8    1
    15     8    17    1
    16    17    19    1
    17    19    20    2
    18    19    21    2
    19    19    22    1
    20    22    23    1
    21    22    24    1
    22     8     9    1
    23    16    11   ar
    24     6     1   ar
    25     9     4    1
    26    17    18    1
@<TRIPOS>MOLECULE
*****
 24 26 0 0 0
SMALL
GASTEIGER

@<TRIPOS>ATOM
      1 C          -4.8024  -18.9433   20.7676 C.ar    1  UNL1        0.0170
      2 C          -5.4277  -20.2730   20.4662 C.ar    1  UNL1        0.0011
      3 C          -6.7484  -20.6364   21.0773 C.ar    1  UNL1       -0.0045
      4 C          -7.4439  -19.6701   21.9898 C.ar    1  UNL1       -0.0247
      5 C          -6.8186  -18.3404   22.2912 C.ar    1  UNL1       -0.0246
      6 C          -5.4978  -17.9770   21.6801 C.ar    1  UNL1       -0.0030
      7 C          -7.7325  -17.5985   23.2209 C.3     1  UNL1        0.0438
      8 C          -8.9226  -18.4696   23.4941 C.3     1  UNL1        0.0838
      9 C          -8.7443  -19.7500   22.7333 C.3     1  UNL1        0.0437
     10 C          -2.2501  -19.7628   22.1147 C.3     1  UNL1        0.0326
     11 C          -2.2054  -18.9896   20.8301 C.ar    1  UNL1       -0.0042
     12 C          -0.8846  -18.6262   20.2190 C.ar    1  UNL1       -0.0012
     13 C          -0.8399  -17.8530   18.9344 C.ar    1  UNL1        0.0204
     14 C          -2.1160  -17.4432   18.2609 C.ar    1  UNL1        0.0988
     15 N          -3.4368  -17.8067   18.8720 N.ar    1  UNL1       -0.2442
     16 C          -3.4815  -18.5799   20.1565 C.ar    1  UNL1        0.0773
     17 N         -10.0867  -18.1215   24.3738 N.3     1  UNL1       -0.1841
     18 H          -9.8818  -17.2118   24.7871 H       1  UNL1        0.1484
     19 S         -11.4662  -18.0318   23.7916 S.O2    1  UNL1        0.0390
     20 O         -11.8809  -19.2327   24.5890 O.2     1  UNL1       -0.1576
     21 O         -11.0516  -16.8309   22.9941 O.2     1  UNL1       -0.1576
     22 C         -12.8457  -17.9420   23.2094 C.3     1  UNL1        0.1457
     23 C         -13.0256  -17.7584   21.7315 C.3     1  UNL1        0.0270
     24 C         -14.0453  -18.0359   24.1050 C.3     1  UNL1        0.0270
@<TRIPOS>BOND
     1    10    11    1
     2    11    12   ar
     3    12    13   ar
     4    13    14   ar
     5    14    15   ar
     6    15    16   ar
     7    16     1    1
     8     1     2   ar
     9     2     3   ar
    10     3     4   ar
    11     4     5   ar
    12     5     6   ar
    13     5     7    1
    14     7     8    1
    15     8    17    1
    16    17    19    1
    17    19    20    2
    18    19    21    2
    19    19    22    1
    20    22    23    1
    21    22    24    1
    22     8     9    1
    23    16    11   ar
    24     6     1   ar
    25     9     4    1
    26    17    18    1
@<TRIPOS>MOLECULE
*****
 24 26 0 0 0
SMALL
GASTEIGER

@<TRIPOS>ATOM
      1 C         -16.8400   -7.0490   18.3536 C.ar    1  UNL1        0.0170
      2 C         -17.3413   -6.0045   19.3062 C.ar    1  UNL1        0.0011
      3 C         -16.3954   -4.9836   19.8656 C.ar    1  UNL1       -0.0045
      4 C         -14.9480   -5.0073   19.4724 C.ar    1  UNL1       -0.0247
      5 C         -14.4466   -6.0518   18.5198 C.ar    1  UNL1       -0.0246
      6 C         -15.3926   -7.0727   17.9604 C.ar    1  UNL1       -0.0030
      7 C         -12.9776   -5.8270   18.3166 C.3     1  UNL1        0.0438
      8 C         -12.5710   -4.6436   19.1437 C.3     1  UNL1        0.0838
      9 C         -13.7888   -4.1369   19.8581 C.3     1  UNL1        0.0437
     10 C         -17.0531   -9.7552   19.6307 C.3     1  UNL1        0.0326
     11 C         -17.8925   -9.4230   18.4327 C.ar    1  UNL1       -0.0042
     12 C         -18.8385  -10.4439   17.8734 C.ar    1  UNL1       -0.0012
     13 C         -19.6779  -10.1117   16.6754 C.ar    1  UNL1        0.0204
     14 C         -19.5713   -8.7586   16.0368 C.ar    1  UNL1        0.0988
     15 N         -18.6253   -7.7377   16.5962 N.ar    1  UNL1       -0.2442
     16 C         -17.7860   -8.0699   17.7942 C.ar    1  UNL1        0.0773
     17 N         -11.1891   -4.0678   19.2397 N.3     1  UNL1       -0.1841
     18 H         -10.5868   -4.8067   19.6025 H       1  UNL1        0.1484
     19 S         -10.5167   -3.5236   18.0142 S.O2    1  UNL1        0.0390
     20 O         -11.3292   -2.2677   18.1262 O.2     1  UNL1       -0.1576
     21 O          -9.7042   -4.7795   17.9023 O.2     1  UNL1       -0.1576
     22 C          -9.8443   -2.9794   16.7888 C.3     1  UNL1        0.1457
     23 C          -8.7885   -3.7856   16.0920 C.3     1  UNL1        0.0270
     24 C         -10.2275   -1.6290   16.2602 C.3     1  UNL1        0.0270
@<TRIPOS>BOND
     1    10    11    1
     2    11    12   ar
     3    12    13   ar
     4    13    14   ar
     5    14    15   ar
     6    15    16   ar
     7    16     1    1
     8     1     2   ar
     9     2     3   ar
    10     3     4   ar
    11     4     5   ar
    12     5     6   ar
    13     5     7    1
    14     7     8    1
    15     8    17    1
    16    17    19    1
    17    19    20    2
    18    19    21    2
    19    19    22    1
    20    22    23    1
    21    22    24    1
    22     8     9    1
    23    16    11   ar
    24     6     1   ar
    25     9     4    1
    26    17    18    1
@<TRIPOS>MOLECULE
*****
 24 26 0 0 0
SMALL
GASTEIGER

@<TRIPOS>ATOM
      1 C         -15.4314   -0.2559   19.2296 C.ar    1  UNL1        0.0170
      2 C         -14.6513    0.8049   18.5111 C.ar    1  UNL1        0.0011
      3 C         -13.2180    0.5614   18.1421 C.ar    1  UNL1       -0.0045
      4 C         -12.5647   -0.7429   18.4916 C.ar    1  UNL1       -0.0247
      5 C         -13.3447   -1.8036   19.2101 C.ar    1  UNL1       -0.0246
      6 C         -14.7781   -1.5601   19.5791 C.ar    1  UNL1       -0.0030
      7 C         -12.4400   -2.9812   19.4214 C.3     1  UNL1        0.0438
      8 C         -11.1007   -2.6483   18.8335 C.3     1  UNL1        0.0838
      9 C         -11.1778   -1.2649   18.2588 C.3     1  UNL1        0.0437
     10 C         -17.6304   -1.3589   17.5127 C.3     1  UNL1        0.0326
     11 C         -17.9643   -0.5639   18.7402 C.ar    1  UNL1       -0.0042
     12 C         -19.3977   -0.3205   19.1091 C.ar    1  UNL1       -0.0012
     13 C         -19.7316    0.4744   20.3366 C.ar    1  UNL1        0.0204
     14 C         -18.6321    1.0259   21.1951 C.ar    1  UNL1        0.0988
     15 N         -17.1986    0.7825   20.8260 N.ar    1  UNL1       -0.2442
     16 C         -16.8648   -0.0124   19.5986 C.ar    1  UNL1        0.0773
     17 N          -9.8960   -3.5419   18.8223 N.3     1  UNL1       -0.1841
     18 H          -9.5041   -3.5197   19.7637 H       1  UNL1        0.1484
     19 S         -10.0376   -4.9870   18.4462 S.O2    1  UNL1        0.0390
     20 O         -10.8028   -4.5924   17.2179 O.2     1  UNL1       -0.1576
     21 O          -9.2724   -5.3817   19.6744 O.2     1  UNL1       -0.1576
     22 C         -10.1793   -6.4322   18.0700 C.3     1  UNL1        0.1457
     23 C         -11.0597   -6.8253   16.9210 C.3     1  UNL1        0.0270
     24 C          -9.4405   -7.4842   18.8429 C.3     1  UNL1        0.0270
@<TRIPOS>BOND
     1    10    11    1
     2    11    12   ar
     3    12    13   ar
     4    13    14   ar
     5    14    15   ar
     6    15    16   ar
     7    16     1    1
     8     1     2   ar
     9     2     3   ar
    10     3     4   ar
    11     4     5   ar
    12     5     6   ar
    13     5     7    1
    14     7     8    1
    15     8    17    1
    16    17    19    1
    17    19    20    2
    18    19    21    2
    19    19    22    1
    20    22    23    1
    21    22    24    1
    22     8     9    1
    23    16    11   ar
    24     6     1   ar
    25     9     4    1
    26    17    18    1
@<TRIPOS>MOLECULE
*****
 24 26 0 0 0
SMALL
GASTEIGER

@<TRIPOS>ATOM
      1 C          -3.6925  -18.6738   20.9723 C.ar    1  UNL1        0.0170
      2 C          -3.9323  -19.2978   22.3151 C.ar    1  UNL1        0.0011
      3 C          -5.3083  -19.7608   22.6920 C.ar    1  UNL1       -0.0045
      4 C          -6.4446  -19.5998   21.7261 C.ar    1  UNL1       -0.0247
      5 C          -6.2048  -18.9758   20.3833 C.ar    1  UNL1       -0.0246
      6 C          -4.8288  -18.5129   20.0064 C.ar    1  UNL1       -0.0030
      7 C          -7.5103  -18.9488   19.6450 C.3     1  UNL1        0.0438
      8 C          -8.5569  -19.5561   20.5315 C.3     1  UNL1        0.0838
      9 C          -7.8983  -19.9584   21.8177 C.3     1  UNL1        0.0437
     10 C          -2.6682  -16.0396   21.9780 C.3     1  UNL1        0.0326
     11 C          -1.8043  -16.8937   21.0982 C.ar    1  UNL1       -0.0042
     12 C          -0.4282  -16.4307   20.7212 C.ar    1  UNL1       -0.0012
     13 C           0.4357  -17.2848   19.8413 C.ar    1  UNL1        0.0204
     14 C          -0.0764  -18.6020   19.3385 C.ar    1  UNL1        0.0988
     15 N          -1.4525  -19.0650   19.7155 N.ar    1  UNL1       -0.2442
     16 C          -2.3164  -18.2108   20.5953 C.ar    1  UNL1        0.0773
     17 N         -10.0074  -19.7305   20.1915 N.3     1  UNL1       -0.1841
     18 H         -10.2955  -20.6278   20.5816 H       1  UNL1        0.1484
     19 S         -11.0125  -18.7160   20.6504 S.O2    1  UNL1        0.0390
     20 O         -10.6059  -17.8061   19.5293 O.2     1  UNL1       -0.1576
     21 O         -11.4191  -19.6259   21.7714 O.2     1  UNL1       -0.1576
     22 C         -12.0176  -17.7015   21.1093 C.3     1  UNL1        0.1457
     23 C         -12.1638  -16.4036   20.3715 C.3     1  UNL1        0.0270
     24 C         -12.8765  -17.9848   22.3060 C.3     1  UNL1        0.0270
@<TRIPOS>BOND
     1    10    11    1
     2    11    12   ar
     3    12    13   ar
     4    13    14   ar
     5    14    15   ar
     6    15    16   ar
     7    16     1    1
     8     1     2   ar
     9     2     3   ar
    10     3     4   ar
    11     4     5   ar
    12     5     6   ar
    13     5     7    1
    14     7     8    1
    15     8    17    1
    16    17    19    1
    17    19    20    2
    18    19    21    2
    19    19    22    1
    20    22    23    1
    21    22    24    1
    22     8     9    1
    23    16    11   ar
    24     6     1   ar
    25     9     4    1
    26    17    18    1
@<TRIPOS>MOLECULE
*****
 24 26 0 0 0
SMALL
GASTEIGER

@<TRIPOS>ATOM
      1 C          -4.4031  -17.7522   21.9606 C.ar    1  UNL1        0.0170
      2 C          -4.6972  -16.7755   23.0604 C.ar    1  UNL1        0.0011
      3 C          -6.0550  -16.7498   23.6973 C.ar    1  UNL1       -0.0045
      4 C          -7.1187  -17.7007   23.2343 C.ar    1  UNL1       -0.0247
      5 C          -6.8246  -18.6773   22.1345 C.ar    1  UNL1       -0.0246
      6 C          -5.4668  -18.7030   21.4976 C.ar    1  UNL1       -0.0030
      7 C          -8.0634  -19.4870   21.8901 C.3     1  UNL1        0.0438
      8 C          -9.1231  -19.0109   22.8390 C.3     1  UNL1        0.0838
      9 C          -8.5393  -17.9068   23.6697 C.3     1  UNL1        0.0437
     10 C          -3.3673  -20.2889   20.7390 C.3     1  UNL1        0.0326
     11 C          -2.5273  -19.0463   20.7129 C.ar    1  UNL1       -0.0042
     12 C          -1.1695  -19.0721   20.0760 C.ar    1  UNL1       -0.0012
     13 C          -0.3296  -17.8296   20.0498 C.ar    1  UNL1        0.0204
     14 C          -0.8475  -16.5612   20.6606 C.ar    1  UNL1        0.0988
     15 N          -2.2053  -16.5354   21.2976 N.ar    1  UNL1       -0.2442
     16 C          -3.0452  -17.7780   21.3237 C.ar    1  UNL1        0.0773
     17 N         -10.5213  -19.5450   22.9394 N.3     1  UNL1       -0.1841
     18 H         -10.5424  -20.1645   23.7495 H       1  UNL1        0.1484
     19 S         -11.6765  -18.5997   23.0869 S.O2    1  UNL1        0.0390
     20 O         -11.6307  -18.3140   21.6151 O.2     1  UNL1       -0.1576
     21 O         -11.7223  -18.8854   24.5587 O.2     1  UNL1       -0.1576
     22 C         -12.8317  -17.6543   23.2345 C.3     1  UNL1        0.1457
     23 C         -14.0255  -18.0506   24.0518 C.3     1  UNL1        0.0270
     24 C         -12.7932  -16.3127   22.5647 C.3     1  UNL1        0.0270
@<TRIPOS>BOND
     1    10    11    1
     2    11    12   ar
     3    12    13   ar
     4    13    14   ar
     5    14    15   ar
     6    15    16   ar
     7    16     1    1
     8     1     2   ar
     9     2     3   ar
    10     3     4   ar
    11     4     5   ar
    12     5     6   ar
    13     5     7    1
    14     7     8    1
    15     8    17    1
    16    17    19    1
    17    19    20    2
    18    19    21    2
    19    19    22    1
    20    22    23    1
    21    22    24    1
    22     8     9    1
    23    16    11   ar
    24     6     1   ar
    25     9     4    1
    26    17    18    1
