@<TRIPOS>MOLECULE
*****
 30 33 0 0 0
SMALL
GASTEIGER

@<TRIPOS>ATOM
      1 C           3.8285   -0.8016   28.9763 C.ar    1  UNL1        0.0830
      2 C           5.1120   -1.2879   29.5814 C.ar    1  UNL1        0.0369
      3 C           6.1703   -1.8943   28.7083 C.ar    1  UNL1        0.1031
      4 N           5.9451   -2.0144   27.2302 N.ar    1  UNL1       -0.2121
      5 C           4.6616   -1.5281   26.6251 C.ar    1  UNL1        0.2200
      6 N           3.6033   -0.9217   27.4981 N.ar    1  UNL1       -0.2166
      7 N           4.4365   -1.6482   25.1470 N.pl3   1  UNL1       -0.2747
      8 C           3.5817   -0.6423   24.4344 C.3     1  UNL1        0.1151
      9 C           3.3565   -0.7624   22.9563 C.3     1  UNL1        0.1152
     10 N           3.9861   -1.8883   22.1907 N.am    1  UNL1       -0.2726
     11 C           3.7609   -2.0084   20.7126 C.2     1  UNL1        0.2491
     12 O           4.3904   -3.1343   19.9471 O.2     1  UNL1       -0.2699
     13 C           4.8408   -2.8941   22.9033 C.3     1  UNL1        0.1152
     14 C           5.0660   -2.7741   24.3815 C.3     1  UNL1        0.1151
     15 C           2.9062   -1.0026   20.0000 C.ar    1  UNL1        0.0537
     16 C           3.4937   -0.1583   18.9082 C.ar    1  UNL1        0.0068
     17 C           2.6391    0.8475   18.1956 C.ar    1  UNL1        0.0298
     18 C           1.1968    1.0091   18.5747 C.ar    1  UNL1        0.1401
     19 F           0.3421    2.0149   17.8621 F       1  UNL1       -0.2042
     20 C           0.6092    0.1648   19.6665 C.ar    1  UNL1        0.0298
     21 C           1.4639   -0.8410   20.3791 C.ar    1  UNL1        0.0068
     22 C           2.7701   -0.1952   29.8493 C.3     1  UNL1        0.1710
     23 C           1.5052    0.3314   29.2387 C.ar    1  UNL1        0.0786
     24 C           1.4890    1.6884   28.5998 C.ar    1  UNL1        0.0162
     25 C           0.2241    2.2149   27.9893 C.ar    1  UNL1        0.0028
     26 C          -1.0246    1.3844   28.0177 C.ar    1  UNL1        0.0207
     27 C          -1.0085    0.0274   28.6566 C.ar    1  UNL1        0.0985
     28 N           0.2564   -0.4991   29.2671 N.ar    1  UNL1       -0.2467
     29 N           3.1832   -0.0354   32.8164 N.1     1  UNL1       -0.1951
     30 C           2.9767   -0.1153   31.3329 C.1     1  UNL1        0.0843
@<TRIPOS>BOND
     1    29    30    3
     2    30    22    1
     3    22    23    1
     4    23    24   ar
     5    24    25   ar
     6    25    26   ar
     7    26    27   ar
     8    27    28   ar
     9    22     1    1
    10     1     2   ar
    11     2     3   ar
    12     3     4   ar
    13     4     5   ar
    14     5     7    1
    15     7     8    1
    16     8     9    1
    17     9    10    1
    18    10    11   am
    19    11    12    2
    20    11    15    1
    21    15    16   ar
    22    16    17   ar
    23    17    18   ar
    24    18    19    1
    25    18    20   ar
    26    20    21   ar
    27    10    13    1
    28    13    14    1
    29     5     6   ar
    30    28    23   ar
    31     6     1   ar
    32    14     7    1
    33    21    15   ar
@<TRIPOS>MOLECULE
*****
 30 33 0 0 0
SMALL
GASTEIGER

@<TRIPOS>ATOM
      1 C           6.0969   -3.5258   23.4329 C.ar    1  UNL1        0.0830
      2 C           7.1843   -4.3063   22.7559 C.ar    1  UNL1        0.0369
      3 C           8.1679   -5.0881   23.5753 C.ar    1  UNL1        0.1031
      4 N           8.0641   -5.0894   25.0717 N.ar    1  UNL1       -0.2121
      5 C           6.9768   -4.3088   25.7487 C.ar    1  UNL1        0.2200
      6 N           5.9932   -3.5271   24.9294 N.ar    1  UNL1       -0.2166
      7 N           6.8730   -4.3101   27.2451 N.pl3   1  UNL1       -0.2747
      8 C           6.6378   -3.0246   27.9817 C.3     1  UNL1        0.1151
      9 C           6.5340   -3.0259   29.4780 C.3     1  UNL1        0.1152
     10 N           6.6654   -4.3125   30.2379 N.am    1  UNL1       -0.2726
     11 C           6.5616   -4.3137   31.7343 C.2     1  UNL1        0.2491
     12 O           6.6929   -5.6003   32.4942 O.2     1  UNL1       -0.2699
     13 C           6.9005   -5.5979   29.5014 C.3     1  UNL1        0.1152
     14 C           7.0043   -5.5967   28.0050 C.3     1  UNL1        0.1151
     15 C           6.3264   -3.0283   32.4709 C.ar    1  UNL1        0.0537
     16 C           4.9439   -2.6680   32.9280 C.ar    1  UNL1        0.0068
     17 C           4.7087   -1.3826   33.6645 C.ar    1  UNL1        0.0298
     18 C           5.8560   -0.4576   33.9440 C.ar    1  UNL1        0.1401
     19 F           5.6208    0.8278   34.6806 F       1  UNL1       -0.2042
     20 C           7.2385   -0.8179   33.4869 C.ar    1  UNL1        0.0298
     21 C           7.4737   -2.1033   32.7503 C.ar    1  UNL1        0.0068
     22 C           5.1134   -2.7440   22.6136 C.3     1  UNL1        0.1710
     23 C           5.0903   -2.8976   21.1216 C.ar    1  UNL1        0.0786
     24 C           4.2825   -3.9940   20.4929 C.ar    1  UNL1        0.0162
     25 C           4.2594   -4.1476   19.0010 C.ar    1  UNL1        0.0028
     26 C           5.0443   -3.2047   18.1378 C.ar    1  UNL1        0.0207
     27 C           5.8521   -2.1084   18.7665 C.ar    1  UNL1        0.0985
     28 N           5.8751   -1.9548   20.2584 N.ar    1  UNL1       -0.2467
     29 N           3.1922   -0.8732   23.9587 N.1     1  UNL1       -0.1951
     30 C           4.1528   -1.8086   23.2862 C.1     1  UNL1        0.0843
@<TRIPOS>BOND
     1    29    30    3
     2    30    22    1
     3    22    23    1
     4    23    24   ar
     5    24    25   ar
     6    25    26   ar
     7    26    27   ar
     8    27    28   ar
     9    22     1    1
    10     1     2   ar
    11     2     3   ar
    12     3     4   ar
    13     4     5   ar
    14     5     7    1
    15     7     8    1
    16     8     9    1
    17     9    10    1
    18    10    11   am
    19    11    12    2
    20    11    15    1
    21    15    16   ar
    22    16    17   ar
    23    17    18   ar
    24    18    19    1
    25    18    20   ar
    26    20    21   ar
    27    10    13    1
    28    13    14    1
    29     5     6   ar
    30    28    23   ar
    31     6     1   ar
    32    14     7    1
    33    21    15   ar
@<TRIPOS>MOLECULE
*****
 30 33 0 0 0
SMALL
GASTEIGER

@<TRIPOS>ATOM
      1 C          -2.7269    3.5573   21.4438 C.ar    1  UNL1        0.0830
      2 C          -2.4419    3.9064   22.8745 C.ar    1  UNL1        0.0369
      3 C          -1.1665    3.4493   23.5183 C.ar    1  UNL1        0.1031
      4 N          -0.1761    2.6431   22.7314 N.ar    1  UNL1       -0.2121
      5 C          -0.4611    2.2940   21.3007 C.ar    1  UNL1        0.2200
      6 N          -1.7365    2.7511   20.6569 N.ar    1  UNL1       -0.2166
      7 N           0.5292    1.4878   20.5138 N.pl3   1  UNL1       -0.2747
      8 C           1.4824    0.5716   21.2224 C.3     1  UNL1        0.1151
      9 C           2.4728   -0.2346   20.4355 C.3     1  UNL1        0.1152
     10 N           2.5099   -0.1246   18.9400 N.am    1  UNL1       -0.2726
     11 C           3.5003   -0.9308   18.1531 C.2     1  UNL1        0.2491
     12 O           3.5375   -0.8208   16.6576 O.2     1  UNL1       -0.2699
     13 C           1.5568    0.7915   18.2314 C.3     1  UNL1        0.1152
     14 C           0.5664    1.5978   19.0183 C.3     1  UNL1        0.1151
     15 C           4.4535   -1.8470   18.8617 C.ar    1  UNL1        0.0537
     16 C           4.0590   -3.2661   19.1451 C.ar    1  UNL1        0.0068
     17 C           5.0121   -4.1823   19.8537 C.ar    1  UNL1        0.0298
     18 C           6.3598   -3.6794   20.2788 C.ar    1  UNL1        0.1401
     19 F           7.3130   -4.5956   20.9874 F       1  UNL1       -0.2042
     20 C           6.7544   -2.2602   19.9954 C.ar    1  UNL1        0.0298
     21 C           5.8012   -1.3440   19.2868 C.ar    1  UNL1        0.0068
     22 C          -4.0022    4.0144   20.8000 C.3     1  UNL1        0.1710
     23 C          -5.0776    4.6475   21.6324 C.ar    1  UNL1        0.0786
     24 C          -6.1012    3.7891   22.3146 C.ar    1  UNL1        0.0162
     25 C          -7.1765    4.4223   23.1469 C.ar    1  UNL1        0.0028
     26 C          -7.2282    5.9139   23.2969 C.ar    1  UNL1        0.0207
     27 C          -6.2047    6.7723   22.6147 C.ar    1  UNL1        0.0985
     28 N          -5.1294    6.1391   21.7824 N.ar    1  UNL1       -0.2467
     29 N          -4.4024    3.6623   17.8477 N.1     1  UNL1       -0.1951
     30 C          -4.2023    3.8383   19.3239 C.1     1  UNL1        0.0843
@<TRIPOS>BOND
     1    29    30    3
     2    30    22    1
     3    22    23    1
     4    23    24   ar
     5    24    25   ar
     6    25    26   ar
     7    26    27   ar
     8    27    28   ar
     9    22     1    1
    10     1     2   ar
    11     2     3   ar
    12     3     4   ar
    13     4     5   ar
    14     5     7    1
    15     7     8    1
    16     8     9    1
    17     9    10    1
    18    10    11   am
    19    11    12    2
    20    11    15    1
    21    15    16   ar
    22    16    17   ar
    23    17    18   ar
    24    18    19    1
    25    18    20   ar
    26    20    21   ar
    27    10    13    1
    28    13    14    1
    29     5     6   ar
    30    28    23   ar
    31     6     1   ar
    32    14     7    1
    33    21    15   ar
@<TRIPOS>MOLECULE
*****
 30 33 0 0 0
SMALL
GASTEIGER

@<TRIPOS>ATOM
      1 C           1.8667    1.9597   32.4864 C.ar    1  UNL1        0.0830
      2 C           2.1260    2.4612   33.8762 C.ar    1  UNL1        0.0369
      3 C           3.1845    1.8161   34.7209 C.ar    1  UNL1        0.1031
      4 N           3.9836    0.6696   34.1759 N.ar    1  UNL1       -0.2121
      5 C           3.7242    0.1682   32.7862 C.ar    1  UNL1        0.2200
      6 N           2.6658    0.8132   31.9415 N.ar    1  UNL1       -0.2166
      7 N           4.5233   -0.9783   32.2413 N.pl3   1  UNL1       -0.2747
      8 C           4.8823   -1.0173   30.7853 C.3     1  UNL1        0.1151
      9 C           5.6813   -2.1638   30.2404 C.3     1  UNL1        0.1152
     10 N           6.1215   -3.2713   31.1513 N.am    1  UNL1       -0.2726
     11 C           6.9206   -4.4177   30.6063 C.2     1  UNL1        0.2491
     12 O           7.3607   -5.5252   31.5172 O.2     1  UNL1       -0.2699
     13 C           5.7626   -3.2323   32.6071 C.3     1  UNL1        0.1152
     14 C           4.9635   -2.0858   33.1522 C.3     1  UNL1        0.1151
     15 C           7.2795   -4.4568   29.1504 C.ar    1  UNL1        0.0537
     16 C           6.4022   -5.1921   28.1811 C.ar    1  UNL1        0.0068
     17 C           6.7611   -5.2312   26.7252 C.ar    1  UNL1        0.0298
     18 C           7.9974   -4.5349   26.2386 C.ar    1  UNL1        0.1401
     19 F           8.3563   -4.5739   24.7827 F       1  UNL1       -0.2042
     20 C           8.8748   -3.7995   27.2078 C.ar    1  UNL1        0.0298
     21 C           8.5158   -3.7605   28.6638 C.ar    1  UNL1        0.0068
     22 C           0.8082    2.6048   31.6417 C.3     1  UNL1        0.1710
     23 C           0.4494    2.0156   30.3097 C.ar    1  UNL1        0.0786
     24 C           1.0290    2.5943   29.0530 C.ar    1  UNL1        0.0162
     25 C           0.6701    2.0051   27.7211 C.ar    1  UNL1        0.0028
     26 C          -0.2683    0.8374   27.6458 C.ar    1  UNL1        0.0207
     27 C          -0.8479    0.2587   28.9024 C.ar    1  UNL1        0.0985
     28 N          -0.4890    0.8478   30.2344 N.ar    1  UNL1       -0.2467
     29 N          -0.5911    5.0730   32.6161 N.1     1  UNL1       -0.1951
     30 C           0.1086    3.8389   32.1289 C.1     1  UNL1        0.0843
@<TRIPOS>BOND
     1    29    30    3
     2    30    22    1
     3    22    23    1
     4    23    24   ar
     5    24    25   ar
     6    25    26   ar
     7    26    27   ar
     8    27    28   ar
     9    22     1    1
    10     1     2   ar
    11     2     3   ar
    12     3     4   ar
    13     4     5   ar
    14     5     7    1
    15     7     8    1
    16     8     9    1
    17     9    10    1
    18    10    11   am
    19    11    12    2
    20    11    15    1
    21    15    16   ar
    22    16    17   ar
    23    17    18   ar
    24    18    19    1
    25    18    20   ar
    26    20    21   ar
    27    10    13    1
    28    13    14    1
    29     5     6   ar
    30    28    23   ar
    31     6     1   ar
    32    14     7    1
    33    21    15   ar
@<TRIPOS>MOLECULE
*****
 30 33 0 0 0
SMALL
GASTEIGER

@<TRIPOS>ATOM
      1 C          -2.5899    3.4847   21.5793 C.ar    1  UNL1        0.0830
      2 C          -2.2600    3.8425   22.9981 C.ar    1  UNL1        0.0369
      3 C          -0.9641    3.3905   23.6036 C.ar    1  UNL1        0.1031
      4 N           0.0017    2.5808   22.7903 N.ar    1  UNL1       -0.2121
      5 C          -0.3283    2.2230   21.3715 C.ar    1  UNL1        0.2200
      6 N          -1.6240    2.6749   20.7659 N.ar    1  UNL1       -0.2166
      7 N           0.6375    1.4133   20.5581 N.pl3   1  UNL1       -0.2747
      8 C           1.6044    0.4916   21.2406 C.3     1  UNL1        0.1151
      9 C           2.5702   -0.3181   20.4273 C.3     1  UNL1        0.1152
     10 N           2.5692   -0.2062   18.9315 N.am    1  UNL1       -0.2726
     11 C           3.5350   -1.0159   18.1181 C.2     1  UNL1        0.2491
     12 O           3.5340   -0.9039   16.6223 O.2     1  UNL1       -0.2699
     13 C           1.6024    0.7155   18.2490 C.3     1  UNL1        0.1152
     14 C           0.6365    1.5252   19.0623 C.3     1  UNL1        0.1151
     15 C           4.5019   -1.9376   18.8006 C.ar    1  UNL1        0.0537
     16 C           4.1264   -3.3685   19.0484 C.ar    1  UNL1        0.0068
     17 C           5.0932   -4.2902   19.7308 C.ar    1  UNL1        0.0298
     18 C           6.4355   -3.7809   20.1655 C.ar    1  UNL1        0.1401
     19 F           7.4023   -4.7026   20.8480 F       1  UNL1       -0.2042
     20 C           6.8110   -2.3500   19.9177 C.ar    1  UNL1        0.0298
     21 C           5.8441   -1.4283   19.2353 C.ar    1  UNL1        0.0068
     22 C          -3.8857    3.9366   20.9738 C.3     1  UNL1        0.1710
     23 C          -3.9303    4.3782   19.5409 C.ar    1  UNL1        0.0786
     24 C          -4.7130    3.5861   18.5360 C.ar    1  UNL1        0.0162
     25 C          -4.7576    4.0277   17.1032 C.ar    1  UNL1        0.0028
     26 C          -4.0195    5.2614   16.6753 C.ar    1  UNL1        0.0207
     27 C          -3.2368    6.0536   17.6802 C.ar    1  UNL1        0.0985
     28 N          -3.1923    5.6120   19.1130 N.ar    1  UNL1       -0.2467
     29 N          -6.3881    3.9574   22.6284 N.1     1  UNL1       -0.1951
     30 C          -5.1369    3.9470   21.8011 C.1     1  UNL1        0.0843
@<TRIPOS>BOND
     1    29    30    3
     2    30    22    1
     3    22    23    1
     4    23    24   ar
     5    24    25   ar
     6    25    26   ar
     7    26    27   ar
     8    27    28   ar
     9    22     1    1
    10     1     2   ar
    11     2     3   ar
    12     3     4   ar
    13     4     5   ar
    14     5     7    1
    15     7     8    1
    16     8     9    1
    17     9    10    1
    18    10    11   am
    19    11    12    2
    20    11    15    1
    21    15    16   ar
    22    16    17   ar
    23    17    18   ar
    24    18    19    1
    25    18    20   ar
    26    20    21   ar
    27    10    13    1
    28    13    14    1
    29     5     6   ar
    30    28    23   ar
    31     6     1   ar
    32    14     7    1
    33    21    15   ar
@<TRIPOS>MOLECULE
*****
 30 33 0 0 0
SMALL
GASTEIGER

@<TRIPOS>ATOM
      1 C           3.9306   -1.9318   19.5063 C.ar    1  UNL1        0.0830
      2 C           4.6202   -1.8452   18.1770 C.ar    1  UNL1        0.0369
      3 C           4.2150   -0.7915   17.1892 C.ar    1  UNL1        0.1031
      4 N           3.1204    0.1755   17.5306 N.ar    1  UNL1       -0.2121
      5 C           2.4308    0.0888   18.8599 C.ar    1  UNL1        0.2200
      6 N           2.8359   -0.9648   19.8477 N.ar    1  UNL1       -0.2166
      7 N           1.3361    1.0558   19.2014 N.pl3   1  UNL1       -0.2747
      8 C           0.5286    0.8638   20.4509 C.3     1  UNL1        0.1151
      9 C          -0.5661    1.8308   20.7923 C.3     1  UNL1        0.1152
     10 N          -0.8532    2.9898   19.8844 N.am    1  UNL1       -0.2726
     11 C          -1.9479    3.9568   20.2259 C.2     1  UNL1        0.2491
     12 O          -2.2351    5.1157   19.3179 O.2     1  UNL1       -0.2699
     13 C          -0.0457    3.1818   18.6350 C.3     1  UNL1        0.1152
     14 C           1.0490    2.2148   18.2935 C.3     1  UNL1        0.1151
     15 C          -2.7554    3.7648   21.4753 C.ar    1  UNL1        0.0537
     16 C          -4.1601    3.2459   21.3881 C.ar    1  UNL1        0.0068
     17 C          -4.9677    3.0539   22.6375 C.ar    1  UNL1        0.0298
     18 C          -4.3705    3.3809   23.9742 C.ar    1  UNL1        0.1401
     19 F          -5.1781    3.1889   25.2235 F       1  UNL1       -0.2042
     20 C          -2.9658    3.8998   24.0614 C.ar    1  UNL1        0.0298
     21 C          -2.1583    4.0917   22.8119 C.ar    1  UNL1        0.0068
     22 C           4.3357   -2.9854   20.4941 C.3     1  UNL1        0.1710
     23 C           5.1169   -2.6061   21.7172 C.ar    1  UNL1        0.0786
     24 C           4.6783   -3.0903   23.0674 C.ar    1  UNL1        0.0162
     25 C           5.4595   -2.7110   24.2903 C.ar    1  UNL1        0.0028
     26 C           6.6794   -1.8475   24.1631 C.ar    1  UNL1        0.0207
     27 C           7.1181   -1.3633   22.8129 C.ar    1  UNL1        0.0985
     28 N           6.3369   -1.7426   21.5900 N.ar    1  UNL1       -0.2467
     29 N           3.5834   -5.8512   20.0237 N.1     1  UNL1       -0.1951
     30 C           3.9595   -4.4183   20.2589 C.1     1  UNL1        0.0843
@<TRIPOS>BOND
     1    29    30    3
     2    30    22    1
     3    22    23    1
     4    23    24   ar
     5    24    25   ar
     6    25    26   ar
     7    26    27   ar
     8    27    28   ar
     9    22     1    1
    10     1     2   ar
    11     2     3   ar
    12     3     4   ar
    13     4     5   ar
    14     5     7    1
    15     7     8    1
    16     8     9    1
    17     9    10    1
    18    10    11   am
    19    11    12    2
    20    11    15    1
    21    15    16   ar
    22    16    17   ar
    23    17    18   ar
    24    18    19    1
    25    18    20   ar
    26    20    21   ar
    27    10    13    1
    28    13    14    1
    29     5     6   ar
    30    28    23   ar
    31     6     1   ar
    32    14     7    1
    33    21    15   ar
@<TRIPOS>MOLECULE
*****
 30 33 0 0 0
SMALL
GASTEIGER

@<TRIPOS>ATOM
      1 C           6.7155   -3.8317   25.3293 C.ar    1  UNL1        0.0830
      2 C           7.5318   -5.0728   25.1212 C.ar    1  UNL1        0.0369
      3 C           7.7699   -5.5899   23.7333 C.ar    1  UNL1        0.1031
      4 N           7.1917   -4.8659   22.5538 N.ar    1  UNL1       -0.2121
      5 C           6.3754   -3.6248   22.7619 C.ar    1  UNL1        0.2200
      6 N           6.1373   -3.1077   24.1497 N.ar    1  UNL1       -0.2166
      7 N           5.7972   -2.9009   21.5823 N.pl3   1  UNL1       -0.2747
      8 C           4.9549   -1.6775   21.7923 C.3     1  UNL1        0.1151
      9 C           4.3767   -0.9535   20.6127 C.3     1  UNL1        0.1152
     10 N           4.6407   -1.4528   19.2231 N.am    1  UNL1       -0.2726
     11 C           4.0625   -0.7288   18.0435 C.2     1  UNL1        0.2491
     12 O           4.3265   -1.2281   16.6540 O.2     1  UNL1       -0.2699
     13 C           5.4829   -2.6761   19.0131 C.3     1  UNL1        0.1152
     14 C           6.0612   -3.4002   20.1927 C.3     1  UNL1        0.1151
     15 C           3.2203    0.4946   18.2535 C.ar    1  UNL1        0.0537
     16 C           1.7276    0.3721   18.3375 C.ar    1  UNL1        0.0068
     17 C           0.8854    1.5954   18.5475 C.ar    1  UNL1        0.0298
     18 C           1.5358    2.9412   18.6735 C.ar    1  UNL1        0.1401
     19 F           0.6935    4.1645   18.8834 F       1  UNL1       -0.2042
     20 C           3.0284    3.0637   18.5895 C.ar    1  UNL1        0.0298
     21 C           3.8706    1.8403   18.3795 C.ar    1  UNL1        0.0068
     22 C           6.4774   -3.3146   26.7171 C.3     1  UNL1        0.1710
     23 C           7.1315   -3.9840   27.8894 C.ar    1  UNL1        0.0786
     24 C           6.3943   -5.0412   28.6567 C.ar    1  UNL1        0.0162
     25 C           7.0483   -5.7105   29.8289 C.ar    1  UNL1        0.0028
     26 C           8.4396   -5.3226   30.2339 C.ar    1  UNL1        0.0207
     27 C           9.1767   -4.2653   29.4666 C.ar    1  UNL1        0.0985
     28 N           8.5227   -3.5960   28.2944 N.ar    1  UNL1       -0.2467
     29 N           4.6932   -0.9417   27.1481 N.1     1  UNL1       -0.1951
     30 C           5.5853   -2.1282   26.9326 C.1     1  UNL1        0.0843
@<TRIPOS>BOND
     1    29    30    3
     2    30    22    1
     3    22    23    1
     4    23    24   ar
     5    24    25   ar
     6    25    26   ar
     7    26    27   ar
     8    27    28   ar
     9    22     1    1
    10     1     2   ar
    11     2     3   ar
    12     3     4   ar
    13     4     5   ar
    14     5     7    1
    15     7     8    1
    16     8     9    1
    17     9    10    1
    18    10    11   am
    19    11    12    2
    20    11    15    1
    21    15    16   ar
    22    16    17   ar
    23    17    18   ar
    24    18    19    1
    25    18    20   ar
    26    20    21   ar
    27    10    13    1
    28    13    14    1
    29     5     6   ar
    30    28    23   ar
    31     6     1   ar
    32    14     7    1
    33    21    15   ar
@<TRIPOS>MOLECULE
*****
 30 33 0 0 0
SMALL
GASTEIGER

@<TRIPOS>ATOM
      1 C           4.6257   -1.1952   28.8243 C.ar    1  UNL1        0.0830
      2 C           6.0435   -1.4575   29.2380 C.ar    1  UNL1        0.0369
      3 C           7.0642   -1.8492   28.2109 C.ar    1  UNL1        0.1031
      4 N           6.6671   -1.9787   26.7703 N.ar    1  UNL1       -0.2121
      5 C           5.2494   -1.7164   26.3566 C.ar    1  UNL1        0.2200
      6 N           4.2287   -1.3246   27.3835 N.ar    1  UNL1       -0.2166
      7 N           4.8523   -1.8458   24.9159 N.pl3   1  UNL1       -0.2747
      8 C           4.0644   -0.7543   24.2541 C.3     1  UNL1        0.1151
      9 C           3.6673   -0.8837   22.8134 C.3     1  UNL1        0.1152
     10 N           4.0582   -2.1046   22.0345 N.am    1  UNL1       -0.2726
     11 C           3.6611   -2.2341   20.5939 C.2     1  UNL1        0.2491
     12 O           4.0519   -3.4549   19.8149 O.2     1  UNL1       -0.2699
     13 C           4.8460   -3.1961   22.6963 C.3     1  UNL1        0.1152
     14 C           5.2431   -3.0667   24.1370 C.3     1  UNL1        0.1151
     15 C           2.8732   -1.1426   19.9320 C.ar    1  UNL1        0.0537
     16 C           1.4564   -0.8814   20.3497 C.ar    1  UNL1        0.0068
     17 C           0.6685    0.2101   19.6880 C.ar    1  UNL1        0.0298
     18 C           1.2974    1.0403   18.6085 C.ar    1  UNL1        0.1401
     19 F           0.5094    2.1317   17.9467 F       1  UNL1       -0.2042
     20 C           2.7142    0.7791   18.1908 C.ar    1  UNL1        0.0298
     21 C           3.5021   -0.3124   18.8526 C.ar    1  UNL1        0.0068
     22 C           3.6050   -0.8034   29.8512 C.3     1  UNL1        0.1710
     23 C           3.9912   -0.7189   31.2982 C.ar    1  UNL1        0.0786
     24 C           4.4637    0.5833   31.8735 C.ar    1  UNL1        0.0162
     25 C           4.8498    0.6678   33.3204 C.ar    1  UNL1        0.0028
     26 C           4.7634   -0.5498   34.1922 C.ar    1  UNL1        0.0207
     27 C           4.2908   -1.8520   33.6169 C.ar    1  UNL1        0.0985
     28 N           3.9047   -1.9365   32.1699 N.ar    1  UNL1       -0.2467
     29 N           0.7913   -0.1891   29.0112 N.1     1  UNL1       -0.1951
     30 C           2.1982   -0.4963   29.4312 C.1     1  UNL1        0.0843
@<TRIPOS>BOND
     1    29    30    3
     2    30    22    1
     3    22    23    1
     4    23    24   ar
     5    24    25   ar
     6    25    26   ar
     7    26    27   ar
     8    27    28   ar
     9    22     1    1
    10     1     2   ar
    11     2     3   ar
    12     3     4   ar
    13     4     5   ar
    14     5     7    1
    15     7     8    1
    16     8     9    1
    17     9    10    1
    18    10    11   am
    19    11    12    2
    20    11    15    1
    21    15    16   ar
    22    16    17   ar
    23    17    18   ar
    24    18    19    1
    25    18    20   ar
    26    20    21   ar
    27    10    13    1
    28    13    14    1
    29     5     6   ar
    30    28    23   ar
    31     6     1   ar
    32    14     7    1
    33    21    15   ar
@<TRIPOS>MOLECULE
*****
 30 33 0 0 0
SMALL
GASTEIGER

@<TRIPOS>ATOM
      1 C          -2.8286    3.8862   19.4946 C.ar    1  UNL1        0.0830
      2 C          -2.7301    4.8562   18.3548 C.ar    1  UNL1        0.0369
      3 C          -1.4474    4.9842   17.5876 C.ar    1  UNL1        0.1031
      4 N          -0.2634    4.1421   17.9603 N.ar    1  UNL1       -0.2121
      5 C          -0.3619    3.1721   19.1001 C.ar    1  UNL1        0.2200
      6 N          -1.6445    3.0441   19.8673 N.ar    1  UNL1       -0.2166
      7 N           0.8221    2.3300   19.4728 N.pl3   1  UNL1       -0.2747
      8 C           0.9538    0.9383   18.9287 C.3     1  UNL1        0.1151
      9 C           2.1378    0.0962   19.3014 C.3     1  UNL1        0.1152
     10 N           3.1902    0.6458   20.2182 N.am    1  UNL1       -0.2726
     11 C           4.3742   -0.1963   20.5909 C.2     1  UNL1        0.2491
     12 O           5.4266    0.3532   21.5077 O.2     1  UNL1       -0.2699
     13 C           3.0586    2.0374   20.7623 C.3     1  UNL1        0.1152
     14 C           1.8745    2.8795   20.3896 C.3     1  UNL1        0.1151
     15 C           4.5059   -1.5880   20.0468 C.ar    1  UNL1        0.0537
     16 C           5.1522   -1.8134   18.7121 C.ar    1  UNL1        0.0068
     17 C           5.2839   -3.2050   18.1680 C.ar    1  UNL1        0.0298
     18 C           4.7693   -4.3713   18.9586 C.ar    1  UNL1        0.1401
     19 F           4.9010   -5.7628   18.4145 F       1  UNL1       -0.2042
     20 C           4.1230   -4.1459   20.2933 C.ar    1  UNL1        0.0298
     21 C           3.9913   -2.7542   20.8374 C.ar    1  UNL1        0.0068
     22 C          -4.1112    3.7582   20.2618 C.3     1  UNL1        0.1710
     23 C          -4.1169    3.9459   21.7500 C.ar    1  UNL1        0.0786
     24 C          -3.3679    5.0912   22.3644 C.ar    1  UNL1        0.0162
     25 C          -3.3737    5.2789   23.8525 C.ar    1  UNL1        0.0028
     26 C          -4.1284    4.3214   24.7264 C.ar    1  UNL1        0.0207
     27 C          -4.8774    3.1761   24.1120 C.ar    1  UNL1        0.0985
     28 N          -4.8716    2.9884   22.6239 N.ar    1  UNL1       -0.2467
     29 N          -6.6650    3.1266   18.8198 N.1     1  UNL1       -0.1951
     30 C          -5.3881    3.4424   19.5408 C.1     1  UNL1        0.0843
@<TRIPOS>BOND
     1    29    30    3
     2    30    22    1
     3    22    23    1
     4    23    24   ar
     5    24    25   ar
     6    25    26   ar
     7    26    27   ar
     8    27    28   ar
     9    22     1    1
    10     1     2   ar
    11     2     3   ar
    12     3     4   ar
    13     4     5   ar
    14     5     7    1
    15     7     8    1
    16     8     9    1
    17     9    10    1
    18    10    11   am
    19    11    12    2
    20    11    15    1
    21    15    16   ar
    22    16    17   ar
    23    17    18   ar
    24    18    19    1
    25    18    20   ar
    26    20    21   ar
    27    10    13    1
    28    13    14    1
    29     5     6   ar
    30    28    23   ar
    31     6     1   ar
    32    14     7    1
    33    21    15   ar
