@<TRIPOS>MOLECULE
*****
 62 68 0 0 0
SMALL
GASTEIGER

@<TRIPOS>ATOM
      1 C          -3.9995    3.8381   22.9578 C.ar    1  UNL1        0.0000
      2 C          -4.3979    4.0297   24.3912 C.ar    1  UNL1        0.0000
      3 C          -5.8318    4.2957   24.7421 C.ar    1  UNL1        0.0005
      4 C          -6.8674    4.3701   23.6595 C.ar    1  UNL1        0.0059
      5 C          -6.4691    4.1784   22.2262 C.ar    1  UNL1        0.0005
      6 C          -5.0351    3.9124   21.8753 C.ar    1  UNL1        0.0000
      7 C          -8.3014    4.6360   24.0103 C.2     1  UNL1        0.0330
      8 C          -9.3713    3.6006   24.1917 C.2     1  UNL1        0.0537
      9 C         -10.6483    4.3088   24.5348 C.2     1  UNL1        0.2309
     10 N         -12.0988    4.1066   24.8590 N.2     1  UNL1       -0.0364
     11 C         -12.7146    5.4548   25.0900 C.2     1  UNL1        0.3653
     12 N         -11.6445    6.4903   24.9086 N.2     1  UNL1       -0.0462
     13 C         -10.3675    5.7820   24.5655 C.3     1  UNL1        0.3308
     14 S          -8.9170    5.9842   24.2413 S.3     1  UNL1       -0.0538
     15 C         -14.1484    5.7208   25.4408 C.3     1  UNL1        0.1874
     16 C         -14.6586    6.1866   26.7723 C.3     1  UNL1        0.0344
     17 C         -16.1495    6.3214   26.6761 C.3     1  UNL1        0.0221
     18 C         -17.0678    6.7614   27.7775 C.3     1  UNL1        0.0018
     19 C         -16.5607    5.9389   25.2852 C.3     1  UNL1        0.0940
     20 N         -15.3240    5.5677   24.5218 N.am    1  UNL1       -0.2691
     21 C         -15.2720    5.1217   23.0906 C.2     1  UNL1        0.2440
     22 O         -13.9549    4.7820   22.4582 O.2     1  UNL1       -0.2731
     23 C         -16.5371    5.0155   22.2917 C.3     1  UNL1        0.1512
     24 N         -17.2406    3.6960   22.1730 N.am    1  UNL1       -0.2640
     25 C         -16.8501    2.7324   21.0918 C.2     1  UNL1        0.4021
     26 O         -15.7561    3.0882   20.1292 O.2     1  UNL1       -0.2264
     27 H         -17.9587    3.4624   22.8048 H       1  UNL1        0.1532
     28 O         -17.5537    1.4129   20.9732 O.3     1  UNL1       -0.4306
     29 C         -16.7941    0.1943   20.5393 C.3     1  UNL1        0.2573
     30 C         -17.0987    6.2287   21.6114 C.3     1  UNL1        0.0270
     31 C         -18.2778    6.9423   22.2035 C.3     1  UNL1        0.0022
     32 C         -16.4812    6.7284   20.3390 C.3     1  UNL1        0.0022
     33 C           0.3023    3.0401   21.9055 C.ar    1  UNL1        0.0172
     34 C          -0.7441    3.0455   20.8308 C.ar    1  UNL1        0.0015
     35 C          -2.1781    3.3115   21.1816 C.ar    1  UNL1        0.0000
     36 C          -2.5656    3.5721   22.6070 C.ar    1  UNL1        0.0000
     37 C          -1.5192    3.5667   23.6817 C.ar    1  UNL1        0.0000
     38 C          -0.0852    3.3007   23.3309 C.ar    1  UNL1        0.0015
     39 C           3.7230    1.9561   20.4258 C.ar    1  UNL1        0.1353
     40 N           4.1628    2.7737   21.6040 N.ar    1  UNL1       -0.2279
     41 C           2.9349    3.2792   22.3017 C.ar    1  UNL1        0.1171
     42 C           1.7362    2.7741   21.5547 C.ar    1  UNL1        0.0769
     43 N           2.2232    1.9564   20.3954 N.ar    1  UNL1       -0.3394
     44 H           1.6578    1.5000   19.7311 H       1  UNL1        0.1671
     45 C           4.5077   -1.2113   20.4603 C.2     1  UNL1        0.2439
     46 O           3.5822   -0.7999   21.5669 O.2     1  UNL1       -0.2731
     47 N           4.9852   -0.1955   19.4654 N.am    1  UNL1       -0.2730
     48 C           5.9073   -0.4572   18.3116 C.3     1  UNL1        0.0938
     49 C           6.1165    0.8369   17.5826 C.3     1  UNL1        0.0220
     50 C           6.9689    1.0348   16.3642 C.3     1  UNL1        0.0018
     51 C           5.3237    1.8985   18.2859 C.3     1  UNL1        0.0293
     52 C           4.6245    1.2603   19.4495 C.3     1  UNL1        0.1319
     53 C           4.9554   -2.6385   20.3488 C.3     1  UNL1        0.1512
     54 C           5.9555   -3.6054   22.5431 C.2     1  UNL1        0.4021
     55 O           4.5890   -3.6151   23.1617 O.2     1  UNL1       -0.2264
     56 N           6.1387   -3.1171   21.1368 N.am    1  UNL1       -0.2640
     57 H           7.0356   -3.1108   20.7308 H       1  UNL1        0.1532
     58 C           8.1589   -4.9747   22.6859 C.3     1  UNL1        0.2573
     59 O           7.1388   -4.0840   23.3310 O.3     1  UNL1       -0.4306
     60 C           4.2199   -3.5872   19.4493 C.3     1  UNL1        0.0270
     61 C           4.8694   -4.8694   19.0200 C.3     1  UNL1        0.0022
     62 C           2.8351   -3.2538   18.9793 C.3     1  UNL1        0.0022
@<TRIPOS>BOND
     1    58    59    1
     2    59    54    1
     3    54    55    2
     4    54    56   am
     5    53    56    1
     6    53    45    1
     7    45    46    2
     8    45    47   am
     9    47    48    1
    10    48    49    1
    11    49    50    1
    12    49    51    1
    13    51    52    1
    14    52    39    1
    15    39    40   ar
    16    40    41   ar
    17    41    42   ar
    18    42    33    1
    19    33    34   ar
    20    34    35   ar
    21    35    36   ar
    22    36     1    1
    23     1     2   ar
    24     2     3   ar
    25     3     4   ar
    26     4     7    1
    27     7     8    2
    28     8     9    1
    29     9    10    2
    30    10    11    1
    31    15    11    1
    32    15    16    1
    33    16    17    1
    34    17    18    1
    35    17    19    1
    36    19    20    1
    37    20    21   am
    38    21    22    2
    39    21    23    1
    40    23    24    1
    41    24    25   am
    42    25    26    2
    43    25    28    1
    44    28    29    1
    45    23    30    1
    46    30    31    1
    47    30    32    1
    48    11    12    2
    49    12    13    1
    50    13    14    1
    51     4     5   ar
    52     5     6   ar
    53    36    37   ar
    54    37    38   ar
    55    42    43   ar
    56    53    60    1
    57    60    61    1
    58    60    62    1
    59    52    47    1
    60    43    39   ar
    61    38    33   ar
    62     6     1   ar
    63    14     7    1
    64    13     9    1
    65    20    15    1
    66    56    57    1
    67    24    27    1
    68    43    44    1
@<TRIPOS>MOLECULE
*****
 62 68 0 0 0
SMALL
GASTEIGER

@<TRIPOS>ATOM
      1 C          -7.5221    4.8410   24.1515 C.ar    1  UNL1        0.0000
      2 C          -7.1128    4.2690   22.8267 C.ar    1  UNL1        0.0000
      3 C          -5.6808    3.8960   22.5808 C.ar    1  UNL1        0.0005
      4 C          -4.6581    4.0952   23.6599 C.ar    1  UNL1        0.0059
      5 C          -5.0674    4.6672   24.9848 C.ar    1  UNL1        0.0005
      6 C          -6.4994    5.0402   25.2306 C.ar    1  UNL1        0.0000
      7 C          -3.2262    3.7222   23.4142 C.2     1  UNL1        0.0330
      8 C          -2.2654    3.1915   24.4365 C.2     1  UNL1        0.0537
      9 C          -0.9490    2.9559   23.7570 C.2     1  UNL1        0.2309
     10 N           0.4584    2.4822   23.9689 N.2     1  UNL1       -0.0364
     11 C           1.1810    2.5745   22.6577 C.2     1  UNL1        0.3653
     12 N           0.2201    3.1053   21.6353 N.2     1  UNL1       -0.0462
     13 C          -1.0963    3.3409   22.3148 C.3     1  UNL1        0.3308
     14 S          -2.5037    3.8146   22.1029 S.3     1  UNL1       -0.0538
     15 C           2.6129    2.2017   22.4119 C.3     1  UNL1        0.1874
     16 C           3.8011    2.7206   23.1661 C.3     1  UNL1        0.0344
     17 C           5.0306    2.0840   22.5891 C.3     1  UNL1        0.0221
     18 C           6.4409    2.3186   23.0432 C.3     1  UNL1        0.0018
     19 C           4.6024    1.1716   21.4782 C.3     1  UNL1        0.0940
     20 N           3.1081    1.2443   21.3687 N.am    1  UNL1       -0.2691
     21 C           2.2583    0.4918   20.3882 C.2     1  UNL1        0.2440
     22 O           0.7685    0.6668   20.3976 O.2     1  UNL1       -0.2731
     23 C           2.8982   -0.4358   19.3982 C.3     1  UNL1        0.1512
     24 N           2.8736   -1.9170   19.6337 N.am    1  UNL1       -0.2640
     25 C           4.1190   -2.6270   20.0754 C.2     1  UNL1        0.4021
     26 O           5.3889   -1.8558   20.2816 O.2     1  UNL1       -0.2264
     27 H           2.0401   -2.4232   19.4984 H       1  UNL1        0.1532
     28 O           4.0943   -4.1082   20.3109 O.3     1  UNL1       -0.4306
     29 C           4.3825   -5.0521   19.1812 C.3     1  UNL1        0.2573
     30 C           3.5627    0.1178   18.1725 C.3     1  UNL1        0.0270
     31 C           4.0031    1.5513   18.1409 C.3     1  UNL1        0.0022
     32 C           3.7869   -0.7622   16.9787 C.3     1  UNL1        0.0022
     33 C         -11.8179    5.9599   24.8888 C.ar    1  UNL1        0.0172
     34 C         -11.4121    4.5159   24.8671 C.ar    1  UNL1        0.0015
     35 C          -9.9802    4.1430   24.6213 C.ar    1  UNL1        0.0000
     36 C          -8.9541    5.2140   24.3973 C.ar    1  UNL1        0.0000
     37 C          -9.3598    6.6578   24.4191 C.ar    1  UNL1        0.0000
     38 C         -10.7918    7.0308   24.6649 C.ar    1  UNL1        0.0015
     39 C         -15.6560    6.1907   25.4194 C.ar    1  UNL1        0.1353
     40 N         -15.2509    7.6228   25.6062 N.ar    1  UNL1       -0.2279
     41 C         -13.7639    7.7107   25.4302 C.ar    1  UNL1        0.1171
     42 C         -13.2499    6.3328   25.1346 C.ar    1  UNL1        0.0769
     43 N         -14.4193    5.3934   25.1279 N.ar    1  UNL1       -0.3394
     44 H         -14.3817    4.4238   24.9614 H       1  UNL1        0.1671
     45 C         -17.2721    4.6497   23.0397 C.2     1  UNL1        0.2439
     46 O         -15.8859    5.0775   22.6580 O.2     1  UNL1       -0.2731
     47 N         -17.7954    4.9423   24.4146 N.am    1  UNL1       -0.2730
     48 C         -19.1534    4.5780   24.9370 C.3     1  UNL1        0.0938
     49 C         -19.2500    5.0612   26.3538 C.3     1  UNL1        0.0220
     50 C         -20.4366    4.9083   27.2586 C.3     1  UNL1        0.0018
     51 C         -17.9516    5.7241   26.7069 C.3     1  UNL1        0.0293
     52 C         -17.0526    5.6506   25.5084 C.3     1  UNL1        0.1319
     53 C         -18.1348    3.9293   22.0464 C.3     1  UNL1        0.1512
     54 C         -17.1607    1.7367   21.0495 C.2     1  UNL1        0.4021
     55 O         -16.2346    2.5407   20.1860 O.2     1  UNL1       -0.2264
     56 N         -18.1109    2.4309   21.9797 N.am    1  UNL1       -0.2640
     57 H         -18.7187    1.9031   22.5464 H       1  UNL1        0.1532
     58 C         -18.1877   -0.4946   20.2026 C.3     1  UNL1        0.2573
     59 O         -17.1368    0.2384   20.9828 O.3     1  UNL1       -0.4306
     60 C         -19.0215    4.7072   21.1198 C.3     1  UNL1        0.0270
     61 C         -20.2833    4.0891   20.5943 C.3     1  UNL1        0.0022
     62 C         -18.6466    6.1030   20.7187 C.3     1  UNL1        0.0022
@<TRIPOS>BOND
     1    58    59    1
     2    59    54    1
     3    54    55    2
     4    54    56   am
     5    53    56    1
     6    53    45    1
     7    45    46    2
     8    45    47   am
     9    47    48    1
    10    48    49    1
    11    49    50    1
    12    49    51    1
    13    51    52    1
    14    52    39    1
    15    39    40   ar
    16    40    41   ar
    17    41    42   ar
    18    42    33    1
    19    33    34   ar
    20    34    35   ar
    21    35    36   ar
    22    36     1    1
    23     1     2   ar
    24     2     3   ar
    25     3     4   ar
    26     4     7    1
    27     7     8    2
    28     8     9    1
    29     9    10    2
    30    10    11    1
    31    15    11    1
    32    15    16    1
    33    16    17    1
    34    17    18    1
    35    17    19    1
    36    19    20    1
    37    20    21   am
    38    21    22    2
    39    21    23    1
    40    23    24    1
    41    24    25   am
    42    25    26    2
    43    25    28    1
    44    28    29    1
    45    23    30    1
    46    30    31    1
    47    30    32    1
    48    11    12    2
    49    12    13    1
    50    13    14    1
    51     4     5   ar
    52     5     6   ar
    53    36    37   ar
    54    37    38   ar
    55    42    43   ar
    56    53    60    1
    57    60    61    1
    58    60    62    1
    59    52    47    1
    60    43    39   ar
    61    38    33   ar
    62     6     1   ar
    63    14     7    1
    64    13     9    1
    65    20    15    1
    66    56    57    1
    67    24    27    1
    68    43    44    1
@<TRIPOS>MOLECULE
*****
 62 68 0 0 0
SMALL
GASTEIGER

@<TRIPOS>ATOM
      1 C          -4.4058    4.1257   24.9097 C.ar    1  UNL1        0.0000
      2 C          -3.6113    3.8917   23.6591 C.ar    1  UNL1        0.0000
      3 C          -2.2101    3.3638   23.7484 C.ar    1  UNL1        0.0005
      4 C          -1.6034    3.0699   25.0884 C.ar    1  UNL1        0.0059
      5 C          -2.3979    3.3040   26.3389 C.ar    1  UNL1        0.0005
      6 C          -3.7991    3.8319   26.2496 C.ar    1  UNL1        0.0000
      7 C          -0.2022    2.5420   25.1778 C.2     1  UNL1        0.0330
      8 C           0.3711    1.4206   24.3631 C.2     1  UNL1        0.0537
      9 C           1.7993    1.2284   24.7794 C.2     1  UNL1        0.2309
     10 N           3.0363    0.4165   24.5332 N.2     1  UNL1       -0.0364
     11 C           4.1102    0.9174   25.4530 C.2     1  UNL1        0.3653
     12 N           3.5369    2.0389   26.2676 N.2     1  UNL1       -0.0462
     13 C           2.1087    2.2311   25.8513 C.3     1  UNL1        0.3308
     14 S           0.8716    3.0430   26.0975 S.3     1  UNL1       -0.0538
     15 C           5.5114    0.3895   25.5424 C.3     1  UNL1        0.1874
     16 C           6.6990    0.9086   24.7872 C.3     1  UNL1        0.0344
     17 C           7.8926    0.0898   25.1808 C.3     1  UNL1        0.0221
     18 C           9.2906    0.2652   24.6663 C.3     1  UNL1        0.0018
     19 C           7.4427   -0.9353   26.1792 C.3     1  UNL1        0.0940
     20 N           5.9711   -0.7501   26.4027 N.am    1  UNL1       -0.2691
     21 C           5.1102   -1.5618   27.3246 C.2     1  UNL1        0.2440
     22 O           3.6460   -1.2586   27.4447 O.2     1  UNL1       -0.2731
     23 C           5.7134   -2.6768   28.1263 C.3     1  UNL1        0.1512
     24 N           5.6794   -4.0816   27.6015 N.am    1  UNL1       -0.2640
     25 C           6.9389   -4.7274   27.1048 C.2     1  UNL1        0.4021
     26 O           8.2324   -3.9684   27.1330 O.2     1  UNL1       -0.2264
     27 H           4.8304   -4.5798   27.5831 H       1  UNL1        0.1532
     28 O           6.9048   -6.1322   26.5801 O.3     1  UNL1       -0.4306
     29 C           7.8353   -6.5438   25.4778 C.3     1  UNL1        0.2573
     30 C           6.3508   -2.3870   29.4530 C.3     1  UNL1        0.0270
     31 C           6.5794   -3.4985   30.4340 C.3     1  UNL1        0.0022
     32 C           6.7594   -0.9857   29.7986 C.3     1  UNL1        0.0022
     33 C          -8.6094    5.7095   24.6416 C.ar    1  UNL1        0.0172
     34 C          -8.1068    4.7385   23.6145 C.ar    1  UNL1        0.0015
     35 C          -6.7056    4.2106   23.7039 C.ar    1  UNL1        0.0000
     36 C          -5.8070    4.6536   24.8203 C.ar    1  UNL1        0.0000
     37 C          -6.3096    5.6245   25.8472 C.ar    1  UNL1        0.0000
     38 C          -7.7108    6.1524   25.7578 C.ar    1  UNL1        0.0015
     39 C         -12.4236    6.4225   24.7357 C.ar    1  UNL1        0.1353
     40 N         -11.9099    7.6770   24.0935 N.ar    1  UNL1       -0.2279
     41 C         -10.4186    7.5626   23.9801 C.ar    1  UNL1        0.1171
     42 C         -10.0105    6.2374   24.5522 C.ar    1  UNL1        0.0769
     43 N         -11.2497    5.5327   25.0191 N.ar    1  UNL1       -0.3394
     44 H         -11.2861    4.6426   25.4381 H       1  UNL1        0.1671
     45 C         -14.7024    5.5582   22.5656 C.2     1  UNL1        0.2439
     46 O         -13.3506    5.8064   21.9647 O.2     1  UNL1       -0.2731
     47 N         -14.9066    5.7150   24.0434 N.am    1  UNL1       -0.2730
     48 C         -16.1940    5.5020   24.7830 C.3     1  UNL1        0.0938
     49 C         -15.9422    5.7676   26.2377 C.3     1  UNL1        0.0220
     50 C         -16.9556    5.6728   27.3396 C.3     1  UNL1        0.0018
     51 C         -14.4991    6.1448   26.3970 C.3     1  UNL1        0.0293
     52 C         -13.8591    6.1122   25.0408 C.3     1  UNL1        0.1319
     53 C         -15.8501    5.1532   21.6888 C.3     1  UNL1        0.1512
     54 C         -15.4772    3.2401   19.9708 C.2     1  UNL1        0.4021
     55 O         -14.7717    4.1980   19.0573 O.2     1  UNL1       -0.2264
     56 N         -16.0164    3.7177   21.2865 N.am    1  UNL1       -0.2640
     57 H         -16.4795    3.0889   21.8861 H       1  UNL1        0.1532
     58 C         -14.5812    1.1254   18.7561 C.3     1  UNL1        0.2573
     59 O         -15.6436    1.8047   19.5686 O.3     1  UNL1       -0.4306
     60 C         -16.8314    6.1836   21.2141 C.3     1  UNL1        0.0270
     61 C         -18.2929    5.8527   21.1472 C.3     1  UNL1        0.0022
     62 C         -16.3512    7.5449   20.8064 C.3     1  UNL1        0.0022
@<TRIPOS>BOND
     1    58    59    1
     2    59    54    1
     3    54    55    2
     4    54    56   am
     5    53    56    1
     6    53    45    1
     7    45    46    2
     8    45    47   am
     9    47    48    1
    10    48    49    1
    11    49    50    1
    12    49    51    1
    13    51    52    1
    14    52    39    1
    15    39    40   ar
    16    40    41   ar
    17    41    42   ar
    18    42    33    1
    19    33    34   ar
    20    34    35   ar
    21    35    36   ar
    22    36     1    1
    23     1     2   ar
    24     2     3   ar
    25     3     4   ar
    26     4     7    1
    27     7     8    2
    28     8     9    1
    29     9    10    2
    30    10    11    1
    31    15    11    1
    32    15    16    1
    33    16    17    1
    34    17    18    1
    35    17    19    1
    36    19    20    1
    37    20    21   am
    38    21    22    2
    39    21    23    1
    40    23    24    1
    41    24    25   am
    42    25    26    2
    43    25    28    1
    44    28    29    1
    45    23    30    1
    46    30    31    1
    47    30    32    1
    48    11    12    2
    49    12    13    1
    50    13    14    1
    51     4     5   ar
    52     5     6   ar
    53    36    37   ar
    54    37    38   ar
    55    42    43   ar
    56    53    60    1
    57    60    61    1
    58    60    62    1
    59    52    47    1
    60    43    39   ar
    61    38    33   ar
    62     6     1   ar
    63    14     7    1
    64    13     9    1
    65    20    15    1
    66    56    57    1
    67    24    27    1
    68    43    44    1
@<TRIPOS>MOLECULE
*****
 62 68 0 0 0
SMALL
GASTEIGER

@<TRIPOS>ATOM
      1 C          -4.4707    3.8496   22.6070 C.ar    1  UNL1        0.0000
      2 C          -4.8007    3.8262   24.0701 C.ar    1  UNL1        0.0000
      3 C          -6.2097    4.0670   24.5251 C.ar    1  UNL1        0.0005
      4 C          -7.2885    4.3311   23.5170 C.ar    1  UNL1        0.0059
      5 C          -6.9585    4.3545   22.0540 C.ar    1  UNL1        0.0005
      6 C          -5.5496    4.1138   21.5989 C.ar    1  UNL1        0.0000
      7 C          -8.6975    4.5718   23.9720 C.2     1  UNL1        0.0330
      8 C          -9.7329    3.5177   24.2300 C.2     1  UNL1        0.0537
      9 C         -10.9937    4.2034   24.6663 C.2     1  UNL1        0.2309
     10 N         -12.4128    3.9757   25.0954 N.2     1  UNL1       -0.0364
     11 C         -13.0337    5.3128   25.3721 C.2     1  UNL1        0.3653
     12 N         -11.9982    6.3670   25.1141 N.2     1  UNL1       -0.0462
     13 C         -10.7374    5.6813   24.6778 C.3     1  UNL1        0.3308
     14 S          -9.3183    5.9090   24.2487 S.3     1  UNL1       -0.0538
     15 C         -14.4426    5.5536   25.8271 C.3     1  UNL1        0.1874
     16 C         -14.8659    5.9624   27.2069 C.3     1  UNL1        0.0344
     17 C         -16.3605    6.0893   27.2146 C.3     1  UNL1        0.0221
     18 C         -17.2062    6.4782   28.3909 C.3     1  UNL1        0.0018
     19 C         -16.8609    5.7590   25.8397 C.3     1  UNL1        0.0940
     20 N         -15.6756    5.4279   24.9821 N.am    1  UNL1       -0.2691
     21 C         -15.7161    5.0393   23.5339 C.2     1  UNL1        0.2440
     22 O         -14.4420    4.7352   22.8030 O.2     1  UNL1       -0.2731
     23 C         -17.0308    4.9550   22.8166 C.3     1  UNL1        0.1512
     24 N         -17.4387    6.0429   21.8679 N.am    1  UNL1       -0.2640
     25 C         -17.1577    5.9033   20.4010 C.2     1  UNL1        0.4021
     26 O         -16.4688    4.6757   19.8829 O.2     1  UNL1       -0.2264
     27 H         -17.8908    6.8486   22.2079 H       1  UNL1        0.1532
     28 O         -17.5656    6.9913   19.4524 O.3     1  UNL1       -0.4306
     29 C         -18.4579    6.6758   18.2885 C.3     1  UNL1        0.2573
     30 C         -17.9375    3.7826   23.0479 C.3     1  UNL1        0.0270
     31 C         -19.4191    3.9334   22.8680 C.3     1  UNL1        0.0022
     32 C         -17.3627    2.4595   23.4591 C.3     1  UNL1        0.0022
     33 C          -0.2439    3.1274   21.2423 C.ar    1  UNL1        0.0172
     34 C          -1.3634    3.1351   20.2439 C.ar    1  UNL1        0.0015
     35 C          -2.7723    3.3758   20.6989 C.ar    1  UNL1        0.0000
     36 C          -3.0617    3.6089   22.1521 C.ar    1  UNL1        0.0000
     37 C          -1.9423    3.6013   23.1504 C.ar    1  UNL1        0.0000
     38 C          -0.5334    3.3605   22.6955 C.ar    1  UNL1        0.0015
     39 C           3.4506    2.0768   20.6836 C.ar    1  UNL1        0.1353
     40 N           3.2157    2.9558   19.4910 N.ar    1  UNL1       -0.2279
     41 C           1.8031    3.4563   19.5552 C.ar    1  UNL1        0.1171
     42 C           1.1650    2.8867   20.7874 C.ar    1  UNL1        0.0769
     43 N           2.1832    2.0341   21.4848 N.ar    1  UNL1       -0.3394
     44 H           2.0441    1.5343   22.3215 H       1  UNL1        0.1671
     45 C           3.9280   -1.1503   20.5981 C.2     1  UNL1        0.2439
     46 O           2.5413   -0.7282   20.2121 O.2     1  UNL1       -0.2731
     47 N           4.9480   -0.1179   20.9771 N.am    1  UNL1       -0.2730
     48 C           6.3665   -0.3876   21.3835 C.3     1  UNL1        0.0938
     49 C           7.0238    0.9291   21.6739 C.3     1  UNL1        0.0220
     50 C           8.4441    1.1275   22.1140 C.3     1  UNL1        0.0018
     51 C           6.0115    2.0125   21.4471 C.3     1  UNL1        0.0293
     52 C           4.7286    1.3654   21.0164 C.3     1  UNL1        0.1319
     53 C           4.2947   -2.6047   20.6049 C.3     1  UNL1        0.1512
     54 C           5.9440   -3.8878   22.1488 C.2     1  UNL1        0.4021
     55 O           7.0090   -3.7836   21.0976 O.2     1  UNL1       -0.2264
     56 N           4.5869   -3.2984   21.9025 N.am    1  UNL1       -0.2640
     57 H           3.8879   -3.3669   22.5924 H       1  UNL1        0.1532
     58 C           7.4191   -4.1653   24.2695 C.3     1  UNL1        0.2573
     59 O           6.2362   -4.5815   23.4462 O.3     1  UNL1       -0.4306
     60 C           4.3692   -3.3656   19.3144 C.3     1  UNL1        0.0270
     61 C           3.5697   -4.6225   19.1375 C.3     1  UNL1        0.0022
     62 C           5.2430   -2.8696   18.2007 C.3     1  UNL1        0.0022
@<TRIPOS>BOND
     1    58    59    1
     2    59    54    1
     3    54    55    2
     4    54    56   am
     5    53    56    1
     6    53    45    1
     7    45    46    2
     8    45    47   am
     9    47    48    1
    10    48    49    1
    11    49    50    1
    12    49    51    1
    13    51    52    1
    14    52    39    1
    15    39    40   ar
    16    40    41   ar
    17    41    42   ar
    18    42    33    1
    19    33    34   ar
    20    34    35   ar
    21    35    36   ar
    22    36     1    1
    23     1     2   ar
    24     2     3   ar
    25     3     4   ar
    26     4     7    1
    27     7     8    2
    28     8     9    1
    29     9    10    2
    30    10    11    1
    31    15    11    1
    32    15    16    1
    33    16    17    1
    34    17    18    1
    35    17    19    1
    36    19    20    1
    37    20    21   am
    38    21    22    2
    39    21    23    1
    40    23    24    1
    41    24    25   am
    42    25    26    2
    43    25    28    1
    44    28    29    1
    45    23    30    1
    46    30    31    1
    47    30    32    1
    48    11    12    2
    49    12    13    1
    50    13    14    1
    51     4     5   ar
    52     5     6   ar
    53    36    37   ar
    54    37    38   ar
    55    42    43   ar
    56    53    60    1
    57    60    61    1
    58    60    62    1
    59    52    47    1
    60    43    39   ar
    61    38    33   ar
    62     6     1   ar
    63    14     7    1
    64    13     9    1
    65    20    15    1
    66    56    57    1
    67    24    27    1
    68    43    44    1
@<TRIPOS>MOLECULE
*****
 62 68 0 0 0
SMALL
GASTEIGER

@<TRIPOS>ATOM
      1 C          -4.5249    4.1956   25.2307 C.ar    1  UNL1        0.0000
      2 C          -3.6588    3.9579   24.0293 C.ar    1  UNL1        0.0000
      3 C          -2.2643    3.4328   24.2020 C.ar    1  UNL1        0.0005
      4 C          -1.7360    3.1454   25.5762 C.ar    1  UNL1        0.0059
      5 C          -2.6021    3.3831   26.7775 C.ar    1  UNL1        0.0005
      6 C          -3.9966    3.9082   26.6048 C.ar    1  UNL1        0.0000
      7 C          -0.3415    2.6203   25.7489 C.2     1  UNL1        0.0330
      8 C           0.1523    1.7908   26.8970 C.2     1  UNL1        0.0537
      9 C           1.6029    1.4904   26.6615 C.2     1  UNL1        0.2309
     10 N           2.8046    0.7920   27.2255 N.2     1  UNL1       -0.0364
     11 C           3.9501    1.0043   26.2806 C.2     1  UNL1        0.3653
     12 N           3.4563    1.8340   25.1326 N.2     1  UNL1       -0.0462
     13 C           2.0056    2.1343   25.3680 C.3     1  UNL1        0.3308
     14 S           0.8039    2.8327   24.8040 S.3     1  UNL1       -0.0538
     15 C           5.3445    0.4793   26.4534 C.3     1  UNL1        0.1874
     16 C           6.4022    1.0621   27.3433 C.3     1  UNL1        0.0344
     17 C           7.6374    0.2222   27.2065 C.3     1  UNL1        0.0221
     18 C           8.9385    0.4450   27.9190 C.3     1  UNL1        0.0018
     19 C           7.3433   -0.8796   26.2320 C.3     1  UNL1        0.0940
     20 N           5.9262   -0.7207   25.7666 N.am    1  UNL1       -0.2691
     21 C           5.2155   -1.6063   24.7865 C.2     1  UNL1        0.2440
     22 O           3.7904   -1.3218   24.4149 O.2     1  UNL1       -0.2731
     23 C           5.9300   -2.7764   24.1779 C.3     1  UNL1        0.1512
     24 N           5.9888   -4.0835   24.9115 N.am    1  UNL1       -0.2640
     25 C           7.2923   -4.5719   25.4705 C.2     1  UNL1        0.4021
     26 O           8.5370   -3.7532   25.2959 O.2     1  UNL1       -0.2264
     27 H           5.1718   -4.6208   25.0261 H       1  UNL1        0.1532
     28 O           7.3510   -5.8790   26.2040 O.3     1  UNL1       -0.4306
     29 C           8.2304   -6.9840   25.6983 C.3     1  UNL1        0.2573
     30 C           6.5858   -2.6395   22.8358 C.3     1  UNL1        0.0270
     31 C           6.8651   -1.2774   22.2730 C.3     1  UNL1        0.0022
     32 C           6.9621   -3.8647   22.0564 C.3     1  UNL1        0.0022
     33 C          -8.7081    5.7709   24.7124 C.ar    1  UNL1        0.0172
     34 C          -8.1444    4.7987   23.7188 C.ar    1  UNL1        0.0015
     35 C          -6.7499    4.2736   23.8916 C.ar    1  UNL1        0.0000
     36 C          -5.9193    4.7207   25.0579 C.ar    1  UNL1        0.0000
     37 C          -6.4831    5.6928   26.0514 C.ar    1  UNL1        0.0000
     38 C          -7.8775    6.2179   25.8787 C.ar    1  UNL1        0.0015
     39 C         -12.5199    6.4972   24.6209 C.ar    1  UNL1        0.1353
     40 N         -11.9768    7.7109   23.9267 N.ar    1  UNL1       -0.2279
     41 C         -10.4828    7.5866   23.8765 C.ar    1  UNL1        0.1171
     42 C         -10.1026    6.2960   24.5397 C.ar    1  UNL1        0.0769
     43 N         -11.3615    5.6227   24.9997 N.ar    1  UNL1       -0.3394
     44 H         -11.4177    4.7585   25.4681 H       1  UNL1        0.1671
     45 C         -14.7463    5.6275   22.3991 C.2     1  UNL1        0.2439
     46 O         -13.3749    5.8506   21.8337 O.2     1  UNL1       -0.2731
     47 N         -14.9906    5.8089   23.8679 N.am    1  UNL1       -0.2730
     48 C         -16.3011    5.6223   24.5733 C.3     1  UNL1        0.0938
     49 C         -16.0878    5.9067   26.0305 C.3     1  UNL1        0.0220
     50 C         -17.1333    5.8405   27.1042 C.3     1  UNL1        0.0018
     51 C         -14.6454    6.2691   26.2257 C.3     1  UNL1        0.0293
     52 C         -13.9673    6.2086   24.8891 C.3     1  UNL1        0.1319
     53 C         -15.8733    5.2230   21.4956 C.3     1  UNL1        0.1512
     54 C         -15.5917    3.1025   20.0211 C.2     1  UNL1        0.4021
     55 O         -14.7605    3.8879   19.0504 O.2     1  UNL1       -0.2264
     56 N         -16.1481    3.7701   21.2437 N.am    1  UNL1       -0.2640
     57 H         -16.6937    3.2546   21.8808 H       1  UNL1        0.1532
     58 C         -16.9465    0.9465   20.5368 C.3     1  UNL1        0.2573
     59 O         -15.8665    1.6497   19.7691 O.3     1  UNL1       -0.4306
     60 C         -16.7255    6.2715   20.8441 C.3     1  UNL1        0.0270
     61 C         -16.7212    7.6757   21.3715 C.3     1  UNL1        0.0022
     62 C         -17.5820    5.9157   19.6653 C.3     1  UNL1        0.0022
@<TRIPOS>BOND
     1    58    59    1
     2    59    54    1
     3    54    55    2
     4    54    56   am
     5    53    56    1
     6    53    45    1
     7    45    46    2
     8    45    47   am
     9    47    48    1
    10    48    49    1
    11    49    50    1
    12    49    51    1
    13    51    52    1
    14    52    39    1
    15    39    40   ar
    16    40    41   ar
    17    41    42   ar
    18    42    33    1
    19    33    34   ar
    20    34    35   ar
    21    35    36   ar
    22    36     1    1
    23     1     2   ar
    24     2     3   ar
    25     3     4   ar
    26     4     7    1
    27     7     8    2
    28     8     9    1
    29     9    10    2
    30    10    11    1
    31    15    11    1
    32    15    16    1
    33    16    17    1
    34    17    18    1
    35    17    19    1
    36    19    20    1
    37    20    21   am
    38    21    22    2
    39    21    23    1
    40    23    24    1
    41    24    25   am
    42    25    26    2
    43    25    28    1
    44    28    29    1
    45    23    30    1
    46    30    31    1
    47    30    32    1
    48    11    12    2
    49    12    13    1
    50    13    14    1
    51     4     5   ar
    52     5     6   ar
    53    36    37   ar
    54    37    38   ar
    55    42    43   ar
    56    53    60    1
    57    60    61    1
    58    60    62    1
    59    52    47    1
    60    43    39   ar
    61    38    33   ar
    62     6     1   ar
    63    14     7    1
    64    13     9    1
    65    20    15    1
    66    56    57    1
    67    24    27    1
    68    43    44    1
@<TRIPOS>MOLECULE
*****
 62 68 0 0 0
SMALL
GASTEIGER

@<TRIPOS>ATOM
      1 C          -4.6283    4.7385   23.6869 C.ar    1  UNL1        0.0000
      2 C          -5.1207    5.3598   24.9603 C.ar    1  UNL1        0.0000
      3 C          -6.5940    5.4767   25.2170 C.ar    1  UNL1        0.0005
      4 C          -7.5748    4.9723   24.2004 C.ar    1  UNL1        0.0059
      5 C          -7.0823    4.3510   22.9270 C.ar    1  UNL1        0.0005
      6 C          -5.6090    4.2341   22.6703 C.ar    1  UNL1        0.0000
      7 C          -9.0480    5.0891   24.4570 C.2     1  UNL1        0.0330
      8 C         -10.0172    3.9495   24.5653 C.2     1  UNL1        0.0537
      9 C         -11.3789    4.5222   24.8257 C.2     1  UNL1        0.2309
     10 N         -12.8195    4.1718   25.0535 N.2     1  UNL1       -0.0364
     11 C         -13.5823    5.4489   25.2469 C.2     1  UNL1        0.3653
     12 N         -12.6129    6.5886   25.1386 N.2     1  UNL1       -0.0462
     13 C         -11.2513    6.0159   24.8782 C.3     1  UNL1        0.3308
     14 S          -9.8107    6.3662   24.6504 S.3     1  UNL1       -0.0538
     15 C         -15.0554    5.5658   25.5036 C.3     1  UNL1        0.1874
     16 C         -15.6961    5.9495   26.8046 C.3     1  UNL1        0.0344
     17 C         -17.1833    5.9404   26.6093 C.3     1  UNL1        0.0221
     18 C         -18.2115    6.2637   27.6526 C.3     1  UNL1        0.0018
     19 C         -17.4619    5.5511   25.1878 C.3     1  UNL1        0.0940
     20 N         -16.1468    5.3196   24.5044 N.am    1  UNL1       -0.2691
     21 C         -15.9564    4.9133   23.0731 C.2     1  UNL1        0.2440
     22 O         -14.5733    4.7180   22.5265 O.2     1  UNL1       -0.2731
     23 C         -17.1492    4.7022   22.1884 C.3     1  UNL1        0.1512
     24 N         -17.3673    3.3733   21.5278 N.am    1  UNL1       -0.2640
     25 C         -17.8643    2.2086   22.3320 C.2     1  UNL1        0.4021
     26 O         -18.1432    2.3729   23.7967 O.2     1  UNL1       -0.2264
     27 H         -17.1843    3.2654   20.5665 H       1  UNL1        0.1532
     28 O         -18.0824    0.8796   21.6714 O.3     1  UNL1       -0.4306
     29 C         -17.2490    0.4846   20.4883 C.3     1  UNL1        0.2573
     30 C         -18.1240    5.8202   21.9642 C.3     1  UNL1        0.0270
     31 C         -19.5935    5.5819   22.1474 C.3     1  UNL1        0.0022
     32 C         -17.6291    7.1763   21.5568 C.3     1  UNL1        0.0022
     33 C          -0.2085    4.3880   22.9171 C.ar    1  UNL1        0.0172
     34 C          -1.1772    3.5764   22.1089 C.ar    1  UNL1        0.0015
     35 C          -2.6505    3.6933   22.3656 C.ar    1  UNL1        0.0000
     36 C          -3.1550    4.6216   23.4303 C.ar    1  UNL1        0.0000
     37 C          -2.1863    5.4331   24.2384 C.ar    1  UNL1        0.0000
     38 C          -0.7131    5.3162   23.9817 C.ar    1  UNL1        0.0015
     39 C           3.4808    3.3445   22.3121 C.ar    1  UNL1        0.1353
     40 N           3.5829    4.8381   22.2188 N.ar    1  UNL1       -0.2279
     41 C           2.2134    5.4108   22.4341 C.ar    1  UNL1        0.1171
     42 C           1.2647    4.2711   22.6604 C.ar    1  UNL1        0.0769
     43 N           2.0480    2.9940   22.5850 N.ar    1  UNL1       -0.3394
     44 H           1.6854    2.0854   22.6953 H       1  UNL1        0.1671
     45 C           3.6162    0.8784   20.1792 C.2     1  UNL1        0.2439
     46 O           2.3541    1.6851   20.0998 O.2     1  UNL1       -0.2731
     47 N           4.6749    1.2385   21.1789 N.am    1  UNL1       -0.2730
     48 C           5.9816    0.5284   21.3737 C.3     1  UNL1        0.0938
     49 C           6.7270    1.2230   22.4745 C.3     1  UNL1        0.0220
     50 C           8.0809    0.8446   22.9980 C.3     1  UNL1        0.0018
     51 C           5.8810    2.3625   22.9600 C.3     1  UNL1        0.0293
     52 C           4.6126    2.3720   22.1593 C.3     1  UNL1        0.1319
     53 C           3.8196   -0.2885   19.2589 C.3     1  UNL1        0.1512
     54 C           4.5655   -2.6951   19.8928 C.2     1  UNL1        0.4021
     55 O           5.9915   -2.3288   19.6058 O.2     1  UNL1       -0.2264
     56 N           3.4795   -1.6751   19.7193 N.am    1  UNL1       -0.2640
     57 H           2.5436   -1.9156   19.9077 H       1  UNL1        0.1532
     58 C           3.8655   -5.1377   19.3506 C.3     1  UNL1        0.2573
     59 O           4.2255   -4.0816   20.3532 O.3     1  UNL1       -0.4306
     60 C           4.3629   -0.0689   17.8781 C.3     1  UNL1        0.0270
     61 C           5.4204    0.9690   17.6446 C.3     1  UNL1        0.0022
     62 C           3.8489   -0.8872   16.7309 C.3     1  UNL1        0.0022
@<TRIPOS>BOND
     1    58    59    1
     2    59    54    1
     3    54    55    2
     4    54    56   am
     5    53    56    1
     6    53    45    1
     7    45    46    2
     8    45    47   am
     9    47    48    1
    10    48    49    1
    11    49    50    1
    12    49    51    1
    13    51    52    1
    14    52    39    1
    15    39    40   ar
    16    40    41   ar
    17    41    42   ar
    18    42    33    1
    19    33    34   ar
    20    34    35   ar
    21    35    36   ar
    22    36     1    1
    23     1     2   ar
    24     2     3   ar
    25     3     4   ar
    26     4     7    1
    27     7     8    2
    28     8     9    1
    29     9    10    2
    30    10    11    1
    31    15    11    1
    32    15    16    1
    33    16    17    1
    34    17    18    1
    35    17    19    1
    36    19    20    1
    37    20    21   am
    38    21    22    2
    39    21    23    1
    40    23    24    1
    41    24    25   am
    42    25    26    2
    43    25    28    1
    44    28    29    1
    45    23    30    1
    46    30    31    1
    47    30    32    1
    48    11    12    2
    49    12    13    1
    50    13    14    1
    51     4     5   ar
    52     5     6   ar
    53    36    37   ar
    54    37    38   ar
    55    42    43   ar
    56    53    60    1
    57    60    61    1
    58    60    62    1
    59    52    47    1
    60    43    39   ar
    61    38    33   ar
    62     6     1   ar
    63    14     7    1
    64    13     9    1
    65    20    15    1
    66    56    57    1
    67    24    27    1
    68    43    44    1
@<TRIPOS>MOLECULE
*****
 62 68 0 0 0
SMALL
GASTEIGER

@<TRIPOS>ATOM
      1 C          -7.4854    4.9984   23.3860 C.ar    1  UNL1        0.0000
      2 C          -7.3009    4.4938   21.9856 C.ar    1  UNL1        0.0000
      3 C          -5.9310    4.1324   21.4929 C.ar    1  UNL1        0.0005
      4 C          -4.7455    4.2756   22.4007 C.ar    1  UNL1        0.0059
      5 C          -4.9300    4.7802   23.8011 C.ar    1  UNL1        0.0005
      6 C          -6.2999    5.1416   24.2939 C.ar    1  UNL1        0.0000
      7 C          -3.3756    3.9142   21.9080 C.2     1  UNL1        0.0330
      8 C          -3.0413    3.3750   20.5488 C.2     1  UNL1        0.0537
      9 C          -1.5585    3.1562   20.4889 C.2     1  UNL1        0.2309
     10 N          -0.4355    2.6876   19.6119 N.2     1  UNL1       -0.0364
     11 C           0.8407    2.8021   20.3919 C.2     1  UNL1        0.3653
     12 N           0.5063    3.3414   21.7511 N.2     1  UNL1       -0.0462
     13 C          -0.9765    3.5602   21.8110 C.3     1  UNL1        0.3308
     14 S          -2.0995    4.0287   22.6881 S.3     1  UNL1       -0.0538
     15 C           2.2105    2.4407   19.8993 C.3     1  UNL1        0.1874
     16 C           3.0641    3.2662   18.9826 C.3     1  UNL1        0.0344
     17 C           4.3485    2.5261   18.7537 C.3     1  UNL1        0.0221
     18 C           5.4919    2.9877   17.8995 C.3     1  UNL1        0.0018
     19 C           4.2889    1.2432   19.5288 C.3     1  UNL1        0.0940
     20 N           2.9676    1.1905   20.2368 N.am    1  UNL1       -0.2691
     21 C           2.4875    0.0821   21.1262 C.2     1  UNL1        0.2440
     22 O           1.1351    0.1689   21.7692 O.2     1  UNL1       -0.2731
     23 C           3.3598   -1.1130   21.3726 C.3     1  UNL1        0.1512
     24 N           3.4473   -2.2023   20.3451 N.am    1  UNL1       -0.2640
     25 C           4.7529   -2.4877   19.6639 C.2     1  UNL1        0.4021
     26 O           5.9710   -1.6838   20.0102 O.2     1  UNL1       -0.2264
     27 H           2.6478   -2.7299   20.1178 H       1  UNL1        0.1532
     28 O           4.8403   -3.5771   18.6364 O.3     1  UNL1       -0.4306
     29 C           4.2724   -4.9338   18.9317 C.3     1  UNL1        0.2573
     30 C           4.1447   -1.2188   22.6465 C.3     1  UNL1        0.0270
     31 C           4.2050   -2.5235   23.3841 C.3     1  UNL1        0.0022
     32 C           4.8694   -0.0198   23.1827 C.3     1  UNL1        0.0022
     33 C         -11.5951    6.0826   24.8639 C.ar    1  UNL1        0.0172
     34 C         -11.1723    4.6443   24.8115 C.ar    1  UNL1        0.0015
     35 C          -9.8023    4.2830   24.3188 C.ar    1  UNL1        0.0000
     36 C          -8.8553    5.3598   23.8787 C.ar    1  UNL1        0.0000
     37 C          -9.2782    6.7979   23.9312 C.ar    1  UNL1        0.0000
     38 C         -10.6482    7.1593   24.4238 C.ar    1  UNL1        0.0015
     39 C         -15.3389    6.3492   25.8534 C.ar    1  UNL1        0.1353
     40 N         -14.8075    7.6510   26.3761 N.ar    1  UNL1       -0.2279
     41 C         -13.3404    7.7095   26.0690 C.ar    1  UNL1        0.1171
     42 C         -12.9651    6.4440   25.3566 C.ar    1  UNL1        0.0769
     43 N         -14.2002    5.6033   25.2233 N.ar    1  UNL1       -0.3394
     44 H         -14.2540    4.7174   24.7971 H       1  UNL1        0.1671
     45 C         -17.1755    5.3014   23.3677 C.2     1  UNL1        0.2439
     46 O         -15.7882    5.7115   22.9709 O.2     1  UNL1       -0.2731
     47 N         -17.6037    5.3949   24.8023 N.am    1  UNL1       -0.2730
     48 C         -18.9513    5.0231   25.3460 C.3     1  UNL1        0.0938
     49 C         -18.9400    5.2750   26.8247 C.3     1  UNL1        0.0220
     50 C         -20.0827    5.0406   27.7678 C.3     1  UNL1        0.0018
     51 C         -17.5854    5.8024   27.1947 C.3     1  UNL1        0.0293
     52 C         -16.7595    5.8765   25.9447 C.3     1  UNL1        0.1319
     53 C         -18.1344    4.7979   22.3300 C.3     1  UNL1        0.1512
     54 C         -17.5840    2.6511   20.9743 C.2     1  UNL1        0.4021
     55 O         -16.7105    3.4544   20.0568 O.2     1  UNL1       -0.2264
     56 N         -18.2959    3.3228   22.1109 N.am    1  UNL1       -0.2640
     57 H         -18.8692    2.7955   22.7130 H       1  UNL1        0.1532
     58 C         -16.5376    0.3130   20.5402 C.3     1  UNL1        0.2573
     59 O         -17.7455    1.1760   20.7551 O.3     1  UNL1       -0.4306
     60 C         -18.9319    5.7695   21.5115 C.3     1  UNL1        0.0270
     61 C         -18.3325    6.3824   20.2805 C.3     1  UNL1        0.0022
     62 C         -20.3287    6.1283   21.9238 C.3     1  UNL1        0.0022
@<TRIPOS>BOND
     1    58    59    1
     2    59    54    1
     3    54    55    2
     4    54    56   am
     5    53    56    1
     6    53    45    1
     7    45    46    2
     8    45    47   am
     9    47    48    1
    10    48    49    1
    11    49    50    1
    12    49    51    1
    13    51    52    1
    14    52    39    1
    15    39    40   ar
    16    40    41   ar
    17    41    42   ar
    18    42    33    1
    19    33    34   ar
    20    34    35   ar
    21    35    36   ar
    22    36     1    1
    23     1     2   ar
    24     2     3   ar
    25     3     4   ar
    26     4     7    1
    27     7     8    2
    28     8     9    1
    29     9    10    2
    30    10    11    1
    31    15    11    1
    32    15    16    1
    33    16    17    1
    34    17    18    1
    35    17    19    1
    36    19    20    1
    37    20    21   am
    38    21    22    2
    39    21    23    1
    40    23    24    1
    41    24    25   am
    42    25    26    2
    43    25    28    1
    44    28    29    1
    45    23    30    1
    46    30    31    1
    47    30    32    1
    48    11    12    2
    49    12    13    1
    50    13    14    1
    51     4     5   ar
    52     5     6   ar
    53    36    37   ar
    54    37    38   ar
    55    42    43   ar
    56    53    60    1
    57    60    61    1
    58    60    62    1
    59    52    47    1
    60    43    39   ar
    61    38    33   ar
    62     6     1   ar
    63    14     7    1
    64    13     9    1
    65    20    15    1
    66    56    57    1
    67    24    27    1
    68    43    44    1
@<TRIPOS>MOLECULE
*****
 62 68 0 0 0
SMALL
GASTEIGER

@<TRIPOS>ATOM
      1 C          -7.4037    4.5668   24.0259 C.ar    1  UNL1        0.0000
      2 C          -6.4336    4.7828   25.1494 C.ar    1  UNL1        0.0000
      3 C          -4.9625    4.6081   24.9142 C.ar    1  UNL1        0.0005
      4 C          -4.4615    4.2174   23.5554 C.ar    1  UNL1        0.0059
      5 C          -5.4315    4.0014   22.4319 C.ar    1  UNL1        0.0005
      6 C          -6.9027    4.1761   22.6671 C.ar    1  UNL1        0.0000
      7 C          -2.9903    4.0427   23.3202 C.2     1  UNL1        0.0330
      8 C          -2.3046    4.0434   21.9861 C.2     1  UNL1        0.0537
      9 C          -0.8372    3.8377   22.2192 C.2     1  UNL1        0.2309
     10 N           0.4936    3.7111   21.5387 N.2     1  UNL1       -0.0364
     11 C           1.5373    3.5049   22.5962 C.2     1  UNL1        0.3653
     12 N           0.8514    3.5042   23.9303 N.2     1  UNL1       -0.0462
     13 C          -0.6160    3.7099   23.6973 C.3     1  UNL1        0.3308
     14 S          -1.9467    3.8365   24.3777 S.3     1  UNL1       -0.0538
     15 C           3.0083    3.3302   22.3610 C.3     1  UNL1        0.1874
     16 C           4.0289    4.4282   22.3054 C.3     1  UNL1        0.0344
     17 C           5.3684    3.8034   22.0501 C.3     1  UNL1        0.0221
     18 C           6.6718    4.5344   21.9198 C.3     1  UNL1        0.0018
     19 C           5.1759    2.3193   21.9480 C.3     1  UNL1        0.0940
     20 N           3.7172    2.0269   22.1401 N.am    1  UNL1       -0.2691
     21 C           3.0795    0.6695   22.1157 C.2     1  UNL1        0.2440
     22 O           1.6004    0.5318   22.3245 O.2     1  UNL1       -0.2731
     23 C           3.9207   -0.5503   21.8824 C.3     1  UNL1        0.1512
     24 N           4.6035   -0.7491   20.5617 N.am    1  UNL1       -0.2640
     25 C           3.8662   -1.3943   19.4257 C.2     1  UNL1        0.4021
     26 O           2.4461   -1.8406   19.6106 O.2     1  UNL1       -0.2264
     27 H           5.5356   -0.4562   20.4404 H       1  UNL1        0.1532
     28 O           4.5491   -1.5930   18.1051 O.3     1  UNL1       -0.4306
     29 C           5.0950   -0.4124   17.3579 C.3     1  UNL1        0.2573
     30 C           4.0791   -1.5714   22.9698 C.3     1  UNL1        0.0270
     31 C           4.4164   -2.9910   22.6223 C.3     1  UNL1        0.0022
     32 C           3.9003   -1.1727   24.4048 C.3     1  UNL1        0.0022
     33 C         -11.8170    5.0908   24.7316 C.ar    1  UNL1        0.0172
     34 C         -10.9242    6.2928   24.6402 C.ar    1  UNL1        0.0015
     35 C          -9.4531    6.1181   24.4049 C.ar    1  UNL1        0.0000
     36 C          -8.8748    4.7415   24.2611 C.ar    1  UNL1        0.0000
     37 C          -9.7676    3.5396   24.3525 C.ar    1  UNL1        0.0000
     38 C         -11.2387    3.7144   24.5878 C.ar    1  UNL1        0.0015
     39 C         -15.6521    5.6741   24.5989 C.ar    1  UNL1        0.1353
     40 N         -15.4517    5.3947   26.0590 N.ar    1  UNL1       -0.2279
     41 C         -13.9907    5.1422   26.2864 C.ar    1  UNL1        0.1171
     42 C         -13.2881    5.2655   24.9669 C.ar    1  UNL1        0.0769
     43 N         -14.3148    5.5943   23.9240 N.ar    1  UNL1       -0.3394
     44 H         -14.1415    5.7333   22.9649 H       1  UNL1        0.1671
     45 C         -16.6988    4.4282   21.7703 C.2     1  UNL1        0.2439
     46 O         -15.3455    3.9359   22.1902 O.2     1  UNL1       -0.2731
     47 N         -17.4411    5.4071   22.6309 N.am    1  UNL1       -0.2730
     48 C         -18.7948    5.9851   22.3425 C.3     1  UNL1        0.0938
     49 C         -19.1504    6.9150   23.4644 C.3     1  UNL1        0.0220
     50 C         -20.4176    7.7089   23.5837 C.3     1  UNL1        0.0018
     51 C         -18.0164    6.9117   24.4463 C.3     1  UNL1        0.0293
     52 C         -16.9600    5.9797   23.9311 C.3     1  UNL1        0.1319
     53 C         -17.3097    3.9416   20.4897 C.3     1  UNL1        0.1512
     54 C         -15.8290    4.4913   18.4268 C.2     1  UNL1        0.4021
     55 O         -14.7936    3.5201   18.9112 O.2     1  UNL1       -0.2264
     56 N         -17.0870    4.7021   19.2160 N.am    1  UNL1       -0.2640
     57 H         -17.7666    5.3395   18.8980 H       1  UNL1        0.1532
     58 C         -15.1679    6.6855   17.2025 C.3     1  UNL1        0.2573
     59 O         -15.6063    5.2518   17.1532 O.3     1  UNL1       -0.4306
     60 C         -18.1433    2.6946   20.4826 C.3     1  UNL1        0.0270
     61 C         -18.7269    2.1898   19.1963 C.3     1  UNL1        0.0022
     62 C         -18.3933    1.9524   21.7619 C.3     1  UNL1        0.0022
@<TRIPOS>BOND
     1    58    59    1
     2    59    54    1
     3    54    55    2
     4    54    56   am
     5    53    56    1
     6    53    45    1
     7    45    46    2
     8    45    47   am
     9    47    48    1
    10    48    49    1
    11    49    50    1
    12    49    51    1
    13    51    52    1
    14    52    39    1
    15    39    40   ar
    16    40    41   ar
    17    41    42   ar
    18    42    33    1
    19    33    34   ar
    20    34    35   ar
    21    35    36   ar
    22    36     1    1
    23     1     2   ar
    24     2     3   ar
    25     3     4   ar
    26     4     7    1
    27     7     8    2
    28     8     9    1
    29     9    10    2
    30    10    11    1
    31    15    11    1
    32    15    16    1
    33    16    17    1
    34    17    18    1
    35    17    19    1
    36    19    20    1
    37    20    21   am
    38    21    22    2
    39    21    23    1
    40    23    24    1
    41    24    25   am
    42    25    26    2
    43    25    28    1
    44    28    29    1
    45    23    30    1
    46    30    31    1
    47    30    32    1
    48    11    12    2
    49    12    13    1
    50    13    14    1
    51     4     5   ar
    52     5     6   ar
    53    36    37   ar
    54    37    38   ar
    55    42    43   ar
    56    53    60    1
    57    60    61    1
    58    60    62    1
    59    52    47    1
    60    43    39   ar
    61    38    33   ar
    62     6     1   ar
    63    14     7    1
    64    13     9    1
    65    20    15    1
    66    56    57    1
    67    24    27    1
    68    43    44    1
@<TRIPOS>MOLECULE
*****
 62 68 0 0 0
SMALL
GASTEIGER

@<TRIPOS>ATOM
      1 C          -8.4449    5.5826   25.1439 C.ar    1  UNL1        0.0000
      2 C          -7.8167    6.1879   26.3641 C.ar    1  UNL1        0.0000
      3 C          -6.3658    5.9466   26.6589 C.ar    1  UNL1        0.0005
      4 C          -5.5432    5.1000   25.7334 C.ar    1  UNL1        0.0059
      5 C          -6.1715    4.4948   24.5131 C.ar    1  UNL1        0.0005
      6 C          -7.6224    4.7361   24.2184 C.ar    1  UNL1        0.0000
      7 C          -4.0924    4.8587   26.0280 C.2     1  UNL1        0.0330
      8 C          -3.3119    5.4551   27.1616 C.2     1  UNL1        0.0537
      9 C          -1.9044    4.9436   27.0750 C.2     1  UNL1        0.2309
     10 N          -0.5522    4.9960   27.7220 N.2     1  UNL1       -0.0364
     11 C           0.3729    4.1159   26.9348 C.2     1  UNL1        0.3653
     12 N          -0.4077    3.5195   25.8012 N.2     1  UNL1       -0.0462
     13 C          -1.8151    4.0310   25.8878 C.3     1  UNL1        0.3308
     14 S          -3.1674    3.9786   25.2408 S.3     1  UNL1       -0.0538
     15 C           1.8236    3.8745   27.2294 C.3     1  UNL1        0.1874
     16 C           2.9642    4.7633   26.8301 C.3     1  UNL1        0.0344
     17 C           4.2341    4.1401   27.3290 C.3     1  UNL1        0.0221
     18 C           5.6169    4.6936   27.1514 C.3     1  UNL1        0.0018
     19 C           3.8785    2.8662   28.0367 C.3     1  UNL1        0.0940
     20 N           2.3888    2.7021   27.9752 N.am    1  UNL1       -0.2691
     21 C           1.6022    1.5652   28.5572 C.2     1  UNL1        0.2440
     22 O           0.1091    1.5364   28.4161 O.2     1  UNL1       -0.2731
     23 C           2.3087    0.4571   29.2802 C.3     1  UNL1        0.1512
     24 N           2.7850   -0.7478   28.5242 N.am    1  UNL1       -0.2640
     25 C           4.2468   -0.9239   28.2377 C.2     1  UNL1        0.4021
     26 O           5.2324    0.1048   28.7072 O.2     1  UNL1       -0.2264
     27 H           2.1381   -1.4230   28.2161 H       1  UNL1        0.1532
     28 O           4.7230   -2.1288   27.4817 O.3     1  UNL1       -0.4306
     29 C           5.9688   -2.8427   27.9161 C.3     1  UNL1        0.2573
     30 C           2.5390    0.5538   30.7593 C.3     1  UNL1        0.0270
     31 C           2.1473    1.7981   31.4996 C.3     1  UNL1        0.0022
     32 C           3.1611   -0.5940   31.4981 C.3     1  UNL1        0.0022
     33 C         -12.7974    6.3065   24.2600 C.ar    1  UNL1        0.0172
     34 C         -11.8098    7.4286   24.1340 C.ar    1  UNL1        0.0015
     35 C         -10.3590    7.1872   24.4286 C.ar    1  UNL1        0.0000
     36 C          -9.8958    5.8240   24.8493 C.ar    1  UNL1        0.0000
     37 C         -10.8833    4.7020   24.9753 C.ar    1  UNL1        0.0000
     38 C         -12.3342    4.9434   24.6806 C.ar    1  UNL1        0.0015
     39 C         -16.4482    6.4267   22.9472 C.ar    1  UNL1        0.1353
     40 N         -16.5136    7.4118   24.0766 N.ar    1  UNL1       -0.2279
     41 C         -15.1540    7.4866   24.7058 C.ar    1  UNL1        0.1171
     42 C         -14.2483    6.5478   23.9653 C.ar    1  UNL1        0.0769
     43 N         -15.0480    5.8928   22.8785 N.ar    1  UNL1       -0.3394
     44 H         -14.7129    5.2290   22.2333 H       1  UNL1        0.1671
     45 C         -17.5524    3.3989   22.4352 C.2     1  UNL1        0.2439
     46 O         -16.4008    3.4745   23.3935 O.2     1  UNL1       -0.2731
     47 N         -18.0910    4.6513   21.8097 N.am    1  UNL1       -0.2730
     48 C         -19.2317    4.7318   20.8391 C.3     1  UNL1        0.0938
     49 C         -19.4292    6.1734   20.4745 C.3     1  UNL1        0.0220
     50 C         -20.4638    6.7103   19.5303 C.3     1  UNL1        0.0018
     51 C         -18.4105    6.9838   21.2198 C.3     1  UNL1        0.0293
     52 C         -17.5835    6.0430   22.0451 C.3     1  UNL1        0.1319
     53 C         -18.1653    2.0709   22.1025 C.3     1  UNL1        0.1512
     54 C         -17.0715    1.1747   19.9230 C.2     1  UNL1        0.4021
     55 O         -17.5963    2.3620   19.1714 O.2     1  UNL1       -0.2264
     56 N         -17.3559    1.0291   21.3885 N.am    1  UNL1       -0.2640
     57 H         -17.0115    0.2498   21.8818 H       1  UNL1        0.1532
     58 C         -15.6560   -1.0033   19.9782 C.3     1  UNL1        0.2573
     59 O         -16.2622    0.1329   19.2090 O.3     1  UNL1       -0.4306
     60 C         -19.5875    1.7846   22.4838 C.3     1  UNL1        0.0270
     61 C         -20.1335    2.2979   23.7833 C.3     1  UNL1        0.0022
     62 C         -20.4637    0.9850   21.5657 C.3     1  UNL1        0.0022
@<TRIPOS>BOND
     1    58    59    1
     2    59    54    1
     3    54    55    2
     4    54    56   am
     5    53    56    1
     6    53    45    1
     7    45    46    2
     8    45    47   am
     9    47    48    1
    10    48    49    1
    11    49    50    1
    12    49    51    1
    13    51    52    1
    14    52    39    1
    15    39    40   ar
    16    40    41   ar
    17    41    42   ar
    18    42    33    1
    19    33    34   ar
    20    34    35   ar
    21    35    36   ar
    22    36     1    1
    23     1     2   ar
    24     2     3   ar
    25     3     4   ar
    26     4     7    1
    27     7     8    2
    28     8     9    1
    29     9    10    2
    30    10    11    1
    31    15    11    1
    32    15    16    1
    33    16    17    1
    34    17    18    1
    35    17    19    1
    36    19    20    1
    37    20    21   am
    38    21    22    2
    39    21    23    1
    40    23    24    1
    41    24    25   am
    42    25    26    2
    43    25    28    1
    44    28    29    1
    45    23    30    1
    46    30    31    1
    47    30    32    1
    48    11    12    2
    49    12    13    1
    50    13    14    1
    51     4     5   ar
    52     5     6   ar
    53    36    37   ar
    54    37    38   ar
    55    42    43   ar
    56    53    60    1
    57    60    61    1
    58    60    62    1
    59    52    47    1
    60    43    39   ar
    61    38    33   ar
    62     6     1   ar
    63    14     7    1
    64    13     9    1
    65    20    15    1
    66    56    57    1
    67    24    27    1
    68    43    44    1
