@<TRIPOS>MOLECULE
*****
 20 22 0 0 0
SMALL
GASTEIGER

@<TRIPOS>ATOM
      1 C          -2.5388  -18.9249   20.1653 C.2     1  UNL1        0.1223
      2 C          -2.4887  -19.2293   21.6332 C.2     1  UNL1        0.0343
      3 C          -3.7618  -19.3703   22.4138 C.2     1  UNL1        0.0232
      4 C          -5.0850  -19.2067   21.7265 C.2     1  UNL1        0.0975
      5 N          -6.4951  -19.2884   22.2314 N.2     1  UNL1       -0.2200
      6 C          -7.4167  -19.0344   21.0754 C.2     1  UNL1        0.1901
      7 N          -6.5762  -18.7957   19.8562 N.2     1  UNL1       -0.2236
      8 C          -5.1351  -18.9023   20.2586 C.2     1  UNL1        0.0863
      9 C          -3.8620  -18.7614   19.4780 C.3     1  UNL1        0.1112
     10 C          -0.1968  -17.8435   19.8566 C.3     1  UNL1        0.2520
     11 O          -1.2657  -18.7840   19.3846 O.2     1  UNL1       -0.4753
     12 S          -8.9157  -19.0213   21.1294 S.3     1  UNL1       -0.0709
     13 C          -9.6350  -17.8411   21.7123 C.3     1  UNL1        0.0913
     14 C          -9.2299  -17.3030   23.0525 C.ar    1  UNL1       -0.0109
     15 C          -8.4312  -16.0364   23.1420 C.ar    1  UNL1       -0.0030
     16 C          -8.0261  -15.4983   24.4822 C.ar    1  UNL1        0.0055
     17 C          -8.4196  -16.2268   25.7331 C.ar    1  UNL1        0.0300
     18 I          -8.0145  -15.6886   27.0733 I       1  UNL1       -0.0425
     19 C          -9.2182  -17.4933   25.6436 C.ar    1  UNL1        0.0055
     20 C          -9.6234  -18.0315   24.3033 C.ar    1  UNL1       -0.0030
@<TRIPOS>BOND
     1    10    11    1
     2    11     1    1
     3     1     2    2
     4     2     3    1
     5     3     4    2
     6     4     5    1
     7     5     6    2
     8     6    12    1
     9    12    13    1
    10    13    14    1
    11    14    15   ar
    12    15    16   ar
    13    16    17   ar
    14    17    18    1
    15    17    19   ar
    16    19    20   ar
    17     6     7    1
    18     7     8    2
    19     8     9    1
    20     9     1    1
    21     8     4    1
    22    20    14   ar
@<TRIPOS>MOLECULE
*****
 20 22 0 0 0
SMALL
GASTEIGER

@<TRIPOS>ATOM
      1 C          -2.2195  -18.8538   20.0901 C.2     1  UNL1        0.1223
      2 C          -2.1636  -19.3214   21.5142 C.2     1  UNL1        0.0343
      3 C          -3.4338  -19.5766   22.2703 C.2     1  UNL1        0.0232
      4 C          -4.7599  -19.3643   21.6021 C.2     1  UNL1        0.0975
      5 N          -6.1681  -19.5323   22.0904 N.2     1  UNL1       -0.2200
      6 C          -7.0945  -19.1686   20.9681 C.2     1  UNL1        0.1901
      7 N          -6.2587  -18.7758   19.7861 N.2     1  UNL1       -0.2236
      8 C          -4.8158  -18.8967   20.1780 C.2     1  UNL1        0.0863
      9 C          -3.5456  -18.6415   19.4220 C.3     1  UNL1        0.1112
     10 C           0.0779  -17.6575   19.8897 C.3     1  UNL1        0.2520
     11 O          -0.9494  -18.5986   19.3341 O.2     1  UNL1       -0.4753
     12 S          -8.5934  -19.1933   21.0188 S.3     1  UNL1       -0.0709
     13 C          -9.3522  -17.9515   21.3822 C.3     1  UNL1        0.0913
     14 C         -10.5674  -18.0439   22.2566 C.ar    1  UNL1       -0.0109
     15 C         -11.9227  -17.7366   21.6920 C.ar    1  UNL1       -0.0030
     16 C         -13.1380  -17.8290   22.5663 C.ar    1  UNL1        0.0055
     17 C         -12.9981  -18.2287   24.0053 C.ar    1  UNL1        0.0300
     18 I         -14.2133  -18.3212   24.8796 I       1  UNL1       -0.0425
     19 C         -11.6428  -18.5360   24.5699 C.ar    1  UNL1        0.0055
     20 C         -10.4274  -18.4436   23.6955 C.ar    1  UNL1       -0.0030
@<TRIPOS>BOND
     1    10    11    1
     2    11     1    1
     3     1     2    2
     4     2     3    1
     5     3     4    2
     6     4     5    1
     7     5     6    2
     8     6    12    1
     9    12    13    1
    10    13    14    1
    11    14    15   ar
    12    15    16   ar
    13    16    17   ar
    14    17    18    1
    15    17    19   ar
    16    19    20   ar
    17     6     7    1
    18     7     8    2
    19     8     9    1
    20     9     1    1
    21     8     4    1
    22    20    14   ar
@<TRIPOS>MOLECULE
*****
 20 22 0 0 0
SMALL
GASTEIGER

@<TRIPOS>ATOM
      1 C         -16.3771   -8.0259   17.5835 C.2     1  UNL1        0.1223
      2 C         -16.5780   -7.1319   18.7710 C.2     1  UNL1        0.0343
      3 C         -15.3922   -6.5370   19.4710 C.2     1  UNL1        0.0232
      4 C         -14.0056   -6.8361   18.9835 C.2     1  UNL1        0.0975
      5 N         -12.6552   -6.3975   19.4671 N.2     1  UNL1       -0.2200
      6 C         -11.6197   -7.0204   18.5785 C.2     1  UNL1        0.1901
      7 N         -12.3301   -7.8441   17.5456 N.2     1  UNL1       -0.2236
      8 C         -13.8047   -7.7302   17.7960 C.2     1  UNL1        0.0863
      9 C         -14.9905   -8.3251   17.0960 C.3     1  UNL1        0.1112
     10 C         -18.3939   -9.6637   17.5703 C.3     1  UNL1        0.2520
     11 O         -17.5629   -8.6208   16.8835 O.2     1  UNL1       -0.4753
     12 S         -10.1344   -6.8497   18.7011 S.3     1  UNL1       -0.0709
     13 C          -9.5619   -5.5175   19.0854 C.3     1  UNL1        0.0913
     14 C          -9.9347   -4.2890   18.3097 C.ar    1  UNL1       -0.0109
     15 C         -10.8414   -3.2624   18.9211 C.ar    1  UNL1       -0.0030
     16 C         -11.2143   -2.0339   18.1454 C.ar    1  UNL1        0.0055
     17 C         -10.6804   -1.8320   16.7582 C.ar    1  UNL1        0.0300
     18 I         -11.0533   -0.6035   15.9825 I       1  UNL1       -0.0425
     19 C          -9.7737   -2.8587   16.1467 C.ar    1  UNL1        0.0055
     20 C          -9.4009   -4.0872   16.9225 C.ar    1  UNL1       -0.0030
@<TRIPOS>BOND
     1    10    11    1
     2    11     1    1
     3     1     2    2
     4     2     3    1
     5     3     4    2
     6     4     5    1
     7     5     6    2
     8     6    12    1
     9    12    13    1
    10    13    14    1
    11    14    15   ar
    12    15    16   ar
    13    16    17   ar
    14    17    18    1
    15    17    19   ar
    16    19    20   ar
    17     6     7    1
    18     7     8    2
    19     8     9    1
    20     9     1    1
    21     8     4    1
    22    20    14   ar
@<TRIPOS>MOLECULE
*****
 20 22 0 0 0
SMALL
GASTEIGER

@<TRIPOS>ATOM
      1 C          -1.4711  -17.6840   20.3689 C.2     1  UNL1        0.1223
      2 C          -1.7040  -16.9774   21.6714 C.2     1  UNL1        0.0343
      3 C          -2.9433  -17.2610   22.4675 C.2     1  UNL1        0.0232
      4 C          -3.9498  -18.2511   21.9610 C.2     1  UNL1        0.0975
      5 N          -5.2549  -18.7321   22.5225 N.2     1  UNL1       -0.2200
      6 C          -5.8287  -19.7361   21.5670 C.2     1  UNL1        0.1901
      7 N          -4.8783  -19.8755   20.4150 N.2     1  UNL1       -0.2236
      8 C          -3.7170  -18.9577   20.6585 C.2     1  UNL1        0.0863
      9 C          -2.4777  -18.6741   19.8625 C.3     1  UNL1        0.1112
     10 C           1.1102  -17.4188   20.2426 C.3     1  UNL1        0.2520
     11 O          -0.2318  -17.4005   19.5729 O.2     1  UNL1       -0.4753
     12 S          -7.1254  -20.4714   21.7342 S.3     1  UNL1       -0.0709
     13 C          -8.0108  -20.1733   22.9077 C.3     1  UNL1        0.0913
     14 C          -9.1560  -19.2161   22.7592 C.ar    1  UNL1       -0.0109
     15 C         -10.3586  -19.6050   21.9513 C.ar    1  UNL1       -0.0030
     16 C         -11.5039  -18.6478   21.8027 C.ar    1  UNL1        0.0055
     17 C         -11.4466  -17.3016   22.4620 C.ar    1  UNL1        0.0300
     18 I         -12.5919  -16.3444   22.3134 I       1  UNL1       -0.0425
     19 C         -10.2441  -16.9127   23.2699 C.ar    1  UNL1        0.0055
     20 C          -9.0988  -17.8700   23.4184 C.ar    1  UNL1       -0.0030
@<TRIPOS>BOND
     1    10    11    1
     2    11     1    1
     3     1     2    2
     4     2     3    1
     5     3     4    2
     6     4     5    1
     7     5     6    2
     8     6    12    1
     9    12    13    1
    10    13    14    1
    11    14    15   ar
    12    15    16   ar
    13    16    17   ar
    14    17    18    1
    15    17    19   ar
    16    19    20   ar
    17     6     7    1
    18     7     8    2
    19     8     9    1
    20     9     1    1
    21     8     4    1
    22    20    14   ar
@<TRIPOS>MOLECULE
*****
 20 22 0 0 0
SMALL
GASTEIGER

@<TRIPOS>ATOM
      1 C         -16.4171   -7.7505   19.1030 C.2     1  UNL1        0.1223
      2 C         -15.7853   -8.8375   18.2850 C.2     1  UNL1        0.0343
      3 C         -14.3273   -8.7655   17.9401 C.2     1  UNL1        0.0232
      4 C         -13.5010   -7.6065   18.4132 C.2     1  UNL1        0.0975
      5 N         -12.0515   -7.2665   18.2309 N.2     1  UNL1       -0.2200
      6 C         -11.7874   -5.9692   18.9362 C.2     1  UNL1        0.1901
      7 N         -13.0737   -5.5075   19.5545 N.2     1  UNL1       -0.2236
      8 C         -14.1328   -6.5195   19.2312 C.2     1  UNL1        0.0863
      9 C         -15.5908   -6.5914   19.5761 C.3     1  UNL1        0.1112
     10 C         -18.5229   -9.1528   19.6939 C.3     1  UNL1        0.2520
     11 O         -17.8752   -7.8224   19.4478 O.2     1  UNL1       -0.4753
     12 S         -10.4685   -5.2585   19.0103 S.3     1  UNL1       -0.0709
     13 C          -9.9950   -4.4335   17.8504 C.3     1  UNL1        0.0913
     14 C         -10.5449   -3.0544   17.6369 C.ar    1  UNL1       -0.0109
     15 C         -11.3698   -2.4020   18.7064 C.ar    1  UNL1       -0.0030
     16 C         -11.9197   -1.0229   18.4928 C.ar    1  UNL1        0.0055
     17 C         -11.6449   -0.2962   17.2096 C.ar    1  UNL1        0.0300
     18 I         -12.1948    1.0828   16.9961 I       1  UNL1       -0.0425
     19 C         -10.8200   -0.9487   16.1401 C.ar    1  UNL1        0.0055
     20 C         -10.2701   -2.3278   16.3537 C.ar    1  UNL1       -0.0030
@<TRIPOS>BOND
     1    10    11    1
     2    11     1    1
     3     1     2    2
     4     2     3    1
     5     3     4    2
     6     4     5    1
     7     5     6    2
     8     6    12    1
     9    12    13    1
    10    13    14    1
    11    14    15   ar
    12    15    16   ar
    13    16    17   ar
    14    17    18    1
    15    17    19   ar
    16    19    20   ar
    17     6     7    1
    18     7     8    2
    19     8     9    1
    20     9     1    1
    21     8     4    1
    22    20    14   ar
@<TRIPOS>MOLECULE
*****
 20 22 0 0 0
SMALL
GASTEIGER

@<TRIPOS>ATOM
      1 C         -12.5160    0.2585   18.0720 C.2     1  UNL1        0.1223
      2 C         -11.7118    0.4549   16.8211 C.2     1  UNL1        0.0343
      3 C         -10.7988   -0.6327   16.3380 C.2     1  UNL1        0.0232
      4 C         -10.6899   -1.9167   17.1056 C.2     1  UNL1        0.0975
      5 N          -9.8803   -3.1583   16.8754 N.2     1  UNL1       -0.2200
      6 C         -10.1841   -4.1221   17.9839 C.2     1  UNL1        0.1901
      7 N         -11.1815   -3.4761   18.8993 N.2     1  UNL1       -0.2236
      8 C         -11.4941   -2.1131   18.3565 C.2     1  UNL1        0.0863
      9 C         -12.4071   -1.0255   18.8397 C.3     1  UNL1        0.1112
     10 C         -14.8693    1.0430   18.8442 C.3     1  UNL1        0.2520
     11 O         -13.4290    1.3461   18.5552 O.2     1  UNL1       -0.4753
     12 S          -9.5941   -5.4914   18.1482 S.3     1  UNL1       -0.0709
     13 C         -10.3734   -6.5647   18.8488 C.3     1  UNL1        0.0913
     14 C         -11.7710   -6.8855   18.4086 C.ar    1  UNL1       -0.0109
     15 C         -12.9362   -6.4968   19.2695 C.ar    1  UNL1       -0.0030
     16 C         -14.3338   -6.8175   18.8294 C.ar    1  UNL1        0.0055
     17 C         -14.5662   -7.5271   17.5283 C.ar    1  UNL1        0.0300
     18 I         -15.9638   -7.8478   17.0882 I       1  UNL1       -0.0425
     19 C         -13.4010   -7.9158   16.6674 C.ar    1  UNL1        0.0055
     20 C         -12.0033   -7.5949   17.1076 C.ar    1  UNL1       -0.0030
@<TRIPOS>BOND
     1    10    11    1
     2    11     1    1
     3     1     2    2
     4     2     3    1
     5     3     4    2
     6     4     5    1
     7     5     6    2
     8     6    12    1
     9    12    13    1
    10    13    14    1
    11    14    15   ar
    12    15    16   ar
    13    16    17   ar
    14    17    18    1
    15    17    19   ar
    16    19    20   ar
    17     6     7    1
    18     7     8    2
    19     8     9    1
    20     9     1    1
    21     8     4    1
    22    20    14   ar
@<TRIPOS>MOLECULE
*****
 20 22 0 0 0
SMALL
GASTEIGER

@<TRIPOS>ATOM
      1 C         -10.4464   -5.3430   18.9614 C.2     1  UNL1        0.1223
      2 C         -11.8760   -5.7354   19.1901 C.2     1  UNL1        0.0343
      3 C         -12.9584   -4.6993   19.1207 C.2     1  UNL1        0.0232
      4 C         -12.6113   -3.2708   18.8225 C.2     1  UNL1        0.0975
      5 N         -13.4568   -2.0388   18.6913 N.2     1  UNL1       -0.2200
      6 C         -12.5497   -0.8850   18.3815 C.2     1  UNL1        0.1901
      7 N         -11.1437   -1.4039   18.3212 N.2     1  UNL1       -0.2236
      8 C         -11.1817   -2.8785   18.5938 C.2     1  UNL1        0.0863
      9 C         -10.0993   -3.9146   18.6632 C.3     1  UNL1        0.1112
     10 C          -9.6140   -7.7614   18.5048 C.3     1  UNL1        0.2520
     11 O          -9.3640   -6.3791   19.0308 O.2     1  UNL1       -0.4753
     12 S         -12.9743    0.5380   18.1693 S.3     1  UNL1       -0.0709
     13 C         -14.4159    0.8594   17.9075 C.3     1  UNL1        0.0913
     14 C         -15.3109    1.2678   19.0398 C.ar    1  UNL1       -0.0109
     15 C         -15.3822    2.7065   19.4581 C.ar    1  UNL1       -0.0030
     16 C         -16.2772    3.1149   20.5904 C.ar    1  UNL1        0.0055
     17 C         -17.1010    2.0845   21.3044 C.ar    1  UNL1        0.0300
     18 I         -17.9960    2.4929   22.4367 I       1  UNL1       -0.0425
     19 C         -17.0297    0.6458   20.8861 C.ar    1  UNL1        0.0055
     20 C         -16.1346    0.2375   19.7537 C.ar    1  UNL1       -0.0030
@<TRIPOS>BOND
     1    10    11    1
     2    11     1    1
     3     1     2    2
     4     2     3    1
     5     3     4    2
     6     4     5    1
     7     5     6    2
     8     6    12    1
     9    12    13    1
    10    13    14    1
    11    14    15   ar
    12    15    16   ar
    13    16    17   ar
    14    17    18    1
    15    17    19   ar
    16    19    20   ar
    17     6     7    1
    18     7     8    2
    19     8     9    1
    20     9     1    1
    21     8     4    1
    22    20    14   ar
@<TRIPOS>MOLECULE
*****
 20 22 0 0 0
SMALL
GASTEIGER

@<TRIPOS>ATOM
      1 C         -11.4602   -2.3018   17.8516 C.2     1  UNL1        0.1223
      2 C         -12.1716   -2.1338   19.1613 C.2     1  UNL1        0.0343
      3 C         -12.9286   -3.2838   19.7566 C.2     1  UNL1        0.0232
      4 C         -12.9742   -4.6019   19.0421 C.2     1  UNL1        0.0975
      5 N         -13.6346   -5.9052   19.3813 N.2     1  UNL1       -0.2200
      6 C         -13.3314   -6.8787   18.2811 C.2     1  UNL1        0.1901
      7 N         -12.4835   -6.1771   17.2620 N.2     1  UNL1       -0.2236
      8 C         -12.2627   -4.7699   17.7323 C.2     1  UNL1        0.0863
      9 C         -11.5057   -3.6198   17.1370 C.3     1  UNL1        0.1112
     10 C         -11.3813    0.1720   17.0613 C.3     1  UNL1        0.2520
     11 O         -10.7032   -1.1517   17.2563 O.2     1  UNL1       -0.4753
     12 S         -13.7948   -8.3038   18.2123 S.3     1  UNL1       -0.0709
     13 C         -15.0740   -8.6431   17.5064 C.3     1  UNL1        0.0913
     14 C         -16.3793   -8.5674   18.2416 C.ar    1  UNL1       -0.0109
     15 C         -17.6711   -8.5763   17.4793 C.ar    1  UNL1       -0.0030
     16 C         -18.9763   -8.5006   18.2146 C.ar    1  UNL1        0.0055
     17 C         -18.9897   -8.4160   19.7122 C.ar    1  UNL1        0.0300
     18 I         -20.2950   -8.3403   20.4474 I       1  UNL1       -0.0425
     19 C         -17.6979   -8.4072   20.4745 C.ar    1  UNL1        0.0055
     20 C         -16.3926   -8.4829   19.7391 C.ar    1  UNL1       -0.0030
@<TRIPOS>BOND
     1    10    11    1
     2    11     1    1
     3     1     2    2
     4     2     3    1
     5     3     4    2
     6     4     5    1
     7     5     6    2
     8     6    12    1
     9    12    13    1
    10    13    14    1
    11    14    15   ar
    12    15    16   ar
    13    16    17   ar
    14    17    18    1
    15    17    19   ar
    16    19    20   ar
    17     6     7    1
    18     7     8    2
    19     8     9    1
    20     9     1    1
    21     8     4    1
    22    20    14   ar
@<TRIPOS>MOLECULE
*****
 20 22 0 0 0
SMALL
GASTEIGER

@<TRIPOS>ATOM
      1 C          -0.6027    1.6976   27.0984 C.2     1  UNL1        0.1223
      2 C          -1.5385    2.8431   26.8492 C.2     1  UNL1        0.0343
      3 C          -1.6783    3.4104   25.4677 C.2     1  UNL1        0.0232
      4 C          -0.8823    2.8323   24.3353 C.2     1  UNL1        0.0975
      5 N          -0.8112    3.1803   22.8780 N.2     1  UNL1       -0.2200
      6 C           0.1685    2.2499   22.2265 C.2     1  UNL1        0.1901
      7 N           0.7030    1.3269   23.2812 N.2     1  UNL1       -0.2236
      8 C           0.0534    1.6868   24.5845 C.2     1  UNL1        0.0863
      9 C           0.1933    1.1195   25.9660 C.3     1  UNL1        0.1112
     10 C          -1.3634    0.0178   28.9285 C.3     1  UNL1        0.2520
     11 O          -0.4628    1.1303   28.4799 O.2     1  UNL1       -0.4753
     12 S           0.5474    2.2437   20.7751 S.3     1  UNL1       -0.0709
     13 C           0.3438    1.0062   19.9522 C.3     1  UNL1        0.0913
     14 C           1.5222    0.1671   19.5554 C.ar    1  UNL1       -0.0109
     15 C           1.9458   -0.9858   20.4164 C.ar    1  UNL1       -0.0030
     16 C           3.1242   -1.8248   20.0197 C.ar    1  UNL1        0.0055
     17 C           3.8789   -1.5110   18.7619 C.ar    1  UNL1        0.0300
     18 I           5.0573   -2.3501   18.3652 I       1  UNL1       -0.0425
     19 C           3.4553   -0.3581   17.9009 C.ar    1  UNL1        0.0055
     20 C           2.2769    0.4810   18.2977 C.ar    1  UNL1       -0.0030
@<TRIPOS>BOND
     1    10    11    1
     2    11     1    1
     3     1     2    2
     4     2     3    1
     5     3     4    2
     6     4     5    1
     7     5     6    2
     8     6    12    1
     9    12    13    1
    10    13    14    1
    11    14    15   ar
    12    15    16   ar
    13    16    17   ar
    14    17    18    1
    15    17    19   ar
    16    19    20   ar
    17     6     7    1
    18     7     8    2
    19     8     9    1
    20     9     1    1
    21     8     4    1
    22    20    14   ar
