@<TRIPOS>MOLECULE
*****
 41 44 0 0 0
SMALL
GASTEIGER

@<TRIPOS>ATOM
      1 C          -5.2206  -18.2924   22.6173 C.ar    1  UNL1        0.2144
      2 C          -4.6913  -17.0427   23.2561 C.ar    1  UNL1        0.1822
      3 O          -3.3887  -16.4587   22.7953 O.2     1  UNL1       -0.4500
      4 C          -2.6154  -17.1244   21.6958 C.ar    1  UNL1        0.1545
      5 C          -1.3129  -16.5405   21.2351 C.ar    1  UNL1        0.0744
      6 C          -0.5397  -17.2062   20.1356 C.ar    1  UNL1        0.1397
      7 O           0.7629  -16.6223   19.6748 O.3     1  UNL1       -0.5053
      8 C          -1.0690  -18.4560   19.4969 C.ar    1  UNL1        0.0735
      9 C          -2.3715  -19.0400   19.9576 C.ar    1  UNL1        0.1428
     10 O          -2.9009  -20.2897   19.3189 O.3     1  UNL1       -0.5052
     11 C          -3.1448  -18.3742   21.0571 C.ar    1  UNL1        0.1104
     12 C          -4.4474  -18.9582   21.5179 C.ar    1  UNL1        0.2382
     13 O          -4.9767  -20.2079   20.8792 O.2     1  UNL1       -0.2830
     14 H           1.0936  -15.8416   20.0738 H       1  UNL1        0.2922
     15 H          -2.4178  -20.7056   18.6321 H       1  UNL1        0.2922
     16 C          -5.4646  -16.3769   24.3556 C.ar    1  UNL1        0.0379
     17 C          -6.5822  -15.4338   24.0217 C.ar    1  UNL1        0.0062
     18 C          -7.3554  -14.7681   25.1212 C.ar    1  UNL1        0.0367
     19 C          -7.0110  -15.0455   26.5545 C.ar    1  UNL1        0.1337
     20 O          -7.7843  -14.3797   27.6541 O.3     1  UNL1       -0.5055
     21 C          -5.8933  -15.9885   26.8884 C.ar    1  UNL1        0.0367
     22 C          -5.1201  -16.6542   25.7889 C.ar    1  UNL1        0.0062
     23 H          -8.4825  -13.7906   27.4455 H       1  UNL1        0.2922
     24 O          -6.5232  -18.8764   23.0781 O.3     1  UNL1       -0.4433
     25 C         -10.2652  -18.2098   20.6691 C.3     1  UNL1        0.2261
     26 C         -10.1792  -17.7006   22.0774 C.3     1  UNL1        0.1997
     27 O         -11.3405  -16.9693   22.6827 O.3     1  UNL1       -0.3775
     28 C          -8.9318  -17.9228   22.8804 C.3     1  UNL1        0.2684
     29 C          -7.7705  -18.6542   22.2751 C.3     1  UNL1        0.3321
     30 O          -7.8565  -19.1634   20.8667 O.3     1  UNL1       -0.3165
     31 C          -9.1038  -18.9412   20.0637 C.3     1  UNL1        0.1614
     32 C          -9.1898  -19.4503   18.6555 C.3     1  UNL1        0.0361
     33 H         -12.0601  -16.9127   22.0348 H       1  UNL1        0.2106
     34 O         -11.5125  -17.9876   19.8661 O.3     1  UNL1       -0.4470
     35 C         -11.4700  -15.5642   18.9305 C.3     1  UNL1        0.1212
     36 C         -12.1159  -16.6170   19.7817 C.2     1  UNL1        0.3176
     37 O         -13.3653  -16.2991   20.5485 O.2     1  UNL1       -0.2501
     38 O          -8.8458  -17.4137   24.2887 O.3     1  UNL1       -0.4429
     39 C          -9.3990  -18.2324   25.4173 C.2     1  UNL1        0.3177
     40 C         -10.1833  -19.4775   25.1265 C.3     1  UNL1        0.1212
     41 O          -9.1679  -17.8060   26.8367 O.2     1  UNL1       -0.2501
@<TRIPOS>BOND
     1    35    36    1
     2    36    37    2
     3    36    34    1
     4    25    34    1
     5    25    26    1
     6    26    27    1
     7    26    28    1
     8    28    38    1
     9    38    39    1
    10    39    40    1
    11    39    41    2
    12    28    29    1
    13    29    24    1
    14    24     1    1
    15     1     2   ar
    16     2    16    1
    17    16    17   ar
    18    17    18   ar
    19    18    19   ar
    20    19    20    1
    21    19    21   ar
    22    21    22   ar
    23     2     3   ar
    24     3     4   ar
    25     4     5   ar
    26     5     6   ar
    27     6     7    1
    28     6     8   ar
    29     8     9   ar
    30     9    10    1
    31     9    11   ar
    32    11    12   ar
    33    12    13    2
    34    29    30    1
    35    30    31    1
    36    31    32    1
    37    31    25    1
    38    12     1   ar
    39    22    16   ar
    40    11     4   ar
    41    27    33    1
    42    20    23    1
    43     7    14    1
    44    10    15    1
@<TRIPOS>MOLECULE
*****
 41 44 0 0 0
SMALL
GASTEIGER

@<TRIPOS>ATOM
      1 C           6.9264   -3.0642   23.6159 C.ar    1  UNL1        0.2144
      2 C           6.3284   -2.8765   24.9787 C.ar    1  UNL1        0.1822
      3 O           6.3596   -3.9996   25.9725 O.2     1  UNL1       -0.4500
      4 C           6.9886   -5.3104   25.6035 C.ar    1  UNL1        0.1545
      5 C           7.0197   -6.4335   26.5973 C.ar    1  UNL1        0.0744
      6 C           7.6488   -7.7442   26.2283 C.ar    1  UNL1        0.1397
      7 O           7.6799   -8.8674   27.2222 O.3     1  UNL1       -0.5053
      8 C           8.2467   -7.9319   24.8655 C.ar    1  UNL1        0.0735
      9 C           8.2156   -6.8088   23.8717 C.ar    1  UNL1        0.1428
     10 O           8.8135   -6.9965   22.5089 O.3     1  UNL1       -0.5052
     11 C           7.5865   -5.4981   24.2407 C.ar    1  UNL1        0.1104
     12 C           7.5554   -4.3749   23.2469 C.ar    1  UNL1        0.2382
     13 O           8.1533   -4.5626   21.8841 O.2     1  UNL1       -0.2830
     14 H           7.3064   -8.7501   28.0735 H       1  UNL1        0.2922
     15 H           9.2064   -7.8153   22.2784 H       1  UNL1        0.2922
     16 C           5.6994   -1.5657   25.3477 C.ar    1  UNL1        0.0379
     17 C           6.5490   -0.3364   25.4782 C.ar    1  UNL1        0.0062
     18 C           5.9199    0.9743   25.8472 C.ar    1  UNL1        0.0367
     19 C           4.4413    1.0558   26.0856 C.ar    1  UNL1        0.1337
     20 O           3.8122    2.3667   26.4545 O.3     1  UNL1       -0.5055
     21 C           3.5916   -0.1734   25.9550 C.ar    1  UNL1        0.0367
     22 C           4.2207   -1.4841   25.5860 C.ar    1  UNL1        0.0062
     23 H           4.3429    3.1345   26.5361 H       1  UNL1        0.2922
     24 O           6.8952   -1.9410   22.6220 O.3     1  UNL1       -0.4433
     25 C           3.1106   -1.0435   20.3591 C.3     1  UNL1        0.2261
     26 C           4.1642   -1.9152   19.7427 C.3     1  UNL1        0.1997
     27 O           3.9562   -2.4878   18.3720 O.3     1  UNL1       -0.3775
     28 C           5.4257   -2.2144   20.4970 C.3     1  UNL1        0.2684
     29 C           5.6337   -1.6418   21.8677 C.3     1  UNL1        0.3321
     30 O           4.5801   -0.7700   22.4842 O.3     1  UNL1       -0.3165
     31 C           3.3185   -0.4708   21.7298 C.3     1  UNL1        0.1614
     32 C           2.2650    0.4009   22.3462 C.3     1  UNL1        0.0361
     33 H           3.0964   -2.1990   18.0280 H       1  UNL1        0.2106
     34 O           1.8491   -0.7443   19.6047 O.3     1  UNL1       -0.4470
     35 C           0.8488    1.3722   18.4779 C.3     1  UNL1        0.1212
     36 C           1.8602    0.2646   18.4948 C.2     1  UNL1        0.3176
     37 O           2.8828    0.1659   17.4019 O.2     1  UNL1       -0.2501
     38 O           6.4793   -3.0862   19.8806 O.3     1  UNL1       -0.4429
     39 C           7.4015   -2.5256   18.8388 C.2     1  UNL1        0.3177
     40 C           8.8381   -2.2561   19.1757 C.3     1  UNL1        0.1212
     41 O           6.8871   -2.2344   17.4602 O.2     1  UNL1       -0.2501
@<TRIPOS>BOND
     1    35    36    1
     2    36    37    2
     3    36    34    1
     4    25    34    1
     5    25    26    1
     6    26    27    1
     7    26    28    1
     8    28    38    1
     9    38    39    1
    10    39    40    1
    11    39    41    2
    12    28    29    1
    13    29    24    1
    14    24     1    1
    15     1     2   ar
    16     2    16    1
    17    16    17   ar
    18    17    18   ar
    19    18    19   ar
    20    19    20    1
    21    19    21   ar
    22    21    22   ar
    23     2     3   ar
    24     3     4   ar
    25     4     5   ar
    26     5     6   ar
    27     6     7    1
    28     6     8   ar
    29     8     9   ar
    30     9    10    1
    31     9    11   ar
    32    11    12   ar
    33    12    13    2
    34    29    30    1
    35    30    31    1
    36    31    32    1
    37    31    25    1
    38    12     1   ar
    39    22    16   ar
    40    11     4   ar
    41    27    33    1
    42    20    23    1
    43     7    14    1
    44    10    15    1
@<TRIPOS>MOLECULE
*****
 41 44 0 0 0
SMALL
GASTEIGER

@<TRIPOS>ATOM
      1 C           0.0230    2.7358   22.6355 C.ar    1  UNL1        0.2144
      2 C           0.7476    1.8068   23.5639 C.ar    1  UNL1        0.1822
      3 O           1.5928    0.6994   23.0079 O.2     1  UNL1       -0.4500
      4 C           1.7135    0.5209   21.5234 C.ar    1  UNL1        0.1545
      5 C           2.5587   -0.5865   20.9674 C.ar    1  UNL1        0.0744
      6 C           2.6794   -0.7649   19.4830 C.ar    1  UNL1        0.1397
      7 O           3.5246   -1.8724   18.9269 O.3     1  UNL1       -0.5053
      8 C           1.9548    0.1640   18.5546 C.ar    1  UNL1        0.0735
      9 C           1.1095    1.2714   19.1106 C.ar    1  UNL1        0.1428
     10 O           0.3850    2.2004   18.1821 O.3     1  UNL1       -0.5052
     11 C           0.9889    1.4499   20.5950 C.ar    1  UNL1        0.1104
     12 C           0.1437    2.5574   21.1510 C.ar    1  UNL1        0.2382
     13 O          -0.5809    3.4863   20.2226 O.2     1  UNL1       -0.2830
     14 H           3.9773   -2.4527   19.5069 H       1  UNL1        0.2922
     15 H           0.4603    2.0889   17.2548 H       1  UNL1        0.2922
     16 C           0.6270    1.9853   25.0484 C.ar    1  UNL1        0.0379
     17 C           1.4345    3.0400   25.7451 C.ar    1  UNL1        0.0062
     18 C           1.3138    3.2185   27.2295 C.ar    1  UNL1        0.0367
     19 C           0.3856    2.3422   28.0172 C.ar    1  UNL1        0.1337
     20 O           0.2649    2.5207   29.5017 O.3     1  UNL1       -0.5055
     21 C          -0.4220    1.2875   27.3206 C.ar    1  UNL1        0.0367
     22 C          -0.3013    1.1091   25.8361 C.ar    1  UNL1        0.0062
     23 H           0.7694    3.1796   29.9369 H       1  UNL1        0.2922
     24 O          -0.8222    3.8433   23.1915 O.3     1  UNL1       -0.4433
     25 C          -5.2964    3.7079   22.7295 C.3     1  UNL1        0.2261
     26 C          -4.6769    3.5386   24.0850 C.3     1  UNL1        0.1997
     27 O          -5.5488    3.3242   25.2866 O.3     1  UNL1       -0.3775
     28 C          -3.1855    3.5837   24.2391 C.3     1  UNL1        0.2684
     29 C          -2.3136    3.7982   23.0375 C.3     1  UNL1        0.3321
     30 O          -2.9331    3.9675   21.6819 O.3     1  UNL1       -0.3165
     31 C          -4.4245    3.9224   21.5279 C.3     1  UNL1        0.1614
     32 C          -5.0439    4.0917   20.1723 C.3     1  UNL1        0.0361
     33 H          -6.4798    3.3216   25.0142 H       1  UNL1        0.2106
     34 O          -6.7878    3.6628   22.5755 O.3     1  UNL1       -0.4470
     35 C          -7.2388    6.2201   22.6553 C.3     1  UNL1        0.1212
     36 C          -7.6244    4.8206   23.0330 C.2     1  UNL1        0.3176
     37 O          -8.8466    4.5790   23.8683 O.2     1  UNL1       -0.2501
     38 O          -2.5661    3.4144   25.5946 O.3     1  UNL1       -0.4429
     39 C          -2.7310    4.4838   26.6335 C.2     1  UNL1        0.3177
     40 C          -1.6168    5.4533   26.8953 C.3     1  UNL1        0.1212
     41 O          -4.0101    4.5837   27.4105 O.2     1  UNL1       -0.2501
@<TRIPOS>BOND
     1    35    36    1
     2    36    37    2
     3    36    34    1
     4    25    34    1
     5    25    26    1
     6    26    27    1
     7    26    28    1
     8    28    38    1
     9    38    39    1
    10    39    40    1
    11    39    41    2
    12    28    29    1
    13    29    24    1
    14    24     1    1
    15     1     2   ar
    16     2    16    1
    17    16    17   ar
    18    17    18   ar
    19    18    19   ar
    20    19    20    1
    21    19    21   ar
    22    21    22   ar
    23     2     3   ar
    24     3     4   ar
    25     4     5   ar
    26     5     6   ar
    27     6     7    1
    28     6     8   ar
    29     8     9   ar
    30     9    10    1
    31     9    11   ar
    32    11    12   ar
    33    12    13    2
    34    29    30    1
    35    30    31    1
    36    31    32    1
    37    31    25    1
    38    12     1   ar
    39    22    16   ar
    40    11     4   ar
    41    27    33    1
    42    20    23    1
    43     7    14    1
    44    10    15    1
@<TRIPOS>MOLECULE
*****
 41 44 0 0 0
SMALL
GASTEIGER

@<TRIPOS>ATOM
      1 C           4.3912    1.4653   33.4020 C.ar    1  UNL1        0.2144
      2 C           4.7645    0.2760   34.2363 C.ar    1  UNL1        0.1822
      3 O           4.3450    0.2075   35.6748 O.2     1  UNL1       -0.4500
      4 C           3.5521    1.3285   36.2790 C.ar    1  UNL1        0.1545
      5 C           3.1326    1.2600   37.7175 C.ar    1  UNL1        0.0744
      6 C           2.3397    2.3809   38.3216 C.ar    1  UNL1        0.1397
      7 O           1.9201    2.3125   39.7601 O.3     1  UNL1       -0.5053
      8 C           1.9664    3.5702   37.4872 C.ar    1  UNL1        0.0735
      9 C           2.3859    3.6386   36.0487 C.ar    1  UNL1        0.1428
     10 O           2.0126    4.8279   35.2143 O.3     1  UNL1       -0.5052
     11 C           3.1787    2.5178   35.4446 C.ar    1  UNL1        0.1104
     12 C           3.5983    2.5861   34.0061 C.ar    1  UNL1        0.2382
     13 O           3.2250    3.7754   33.1717 O.2     1  UNL1       -0.2830
     14 H           2.1533    1.5696   40.2813 H       1  UNL1        0.2922
     15 H           1.5173    5.5281   35.5917 H       1  UNL1        0.2922
     16 C           5.5574   -0.8449   33.6322 C.ar    1  UNL1        0.0379
     17 C           4.8946   -2.1574   33.3352 C.ar    1  UNL1        0.0062
     18 C           5.6875   -3.2782   32.7311 C.ar    1  UNL1        0.0367
     19 C           7.1432   -3.0866   32.4239 C.ar    1  UNL1        0.1337
     20 O           7.9361   -4.2075   31.8197 O.3     1  UNL1       -0.5055
     21 C           7.8059   -1.7741   32.7208 C.ar    1  UNL1        0.0367
     22 C           7.0130   -0.6533   33.3250 C.ar    1  UNL1        0.0062
     23 H           7.5221   -5.0273   31.6342 H       1  UNL1        0.2922
     24 O           4.8107    1.5337   31.9634 O.3     1  UNL1       -0.4433
     25 C           1.7263    1.2136   28.7025 C.3     1  UNL1        0.2261
     26 C           2.6409    0.0590   28.9856 C.3     1  UNL1        0.1997
     27 O           2.5275   -1.2023   28.1818 O.3     1  UNL1       -0.3775
     28 C           3.6691    0.1657   30.0726 C.3     1  UNL1        0.2684
     29 C           3.7826    1.4270   30.8764 C.3     1  UNL1        0.3321
     30 O           2.8679    2.5817   30.5933 O.3     1  UNL1       -0.3165
     31 C           1.8397    2.4750   29.5063 C.3     1  UNL1        0.1614
     32 C           0.9251    3.6296   29.2232 C.3     1  UNL1        0.0361
     33 H           1.8191   -1.1053   27.5262 H       1  UNL1        0.2106
     34 O           0.6981    1.1069   27.6155 O.3     1  UNL1       -0.4470
     35 C          -1.1352   -0.3669   28.7186 C.3     1  UNL1        0.1212
     36 C          -0.7410    0.8688   27.9651 C.2     1  UNL1        0.3176
     37 O          -1.7858    1.8663   27.5612 O.2     1  UNL1       -0.2501
     38 O           4.5838   -0.9889   30.3557 O.3     1  UNL1       -0.4429
     39 C           5.8656   -1.1355   29.5905 C.2     1  UNL1        0.3177
     40 C           6.1451   -2.3980   28.8303 C.3     1  UNL1        0.1212
     41 O           6.8679   -0.0196   29.5855 O.2     1  UNL1       -0.2501
@<TRIPOS>BOND
     1    35    36    1
     2    36    37    2
     3    36    34    1
     4    25    34    1
     5    25    26    1
     6    26    27    1
     7    26    28    1
     8    28    38    1
     9    38    39    1
    10    39    40    1
    11    39    41    2
    12    28    29    1
    13    29    24    1
    14    24     1    1
    15     1     2   ar
    16     2    16    1
    17    16    17   ar
    18    17    18   ar
    19    18    19   ar
    20    19    20    1
    21    19    21   ar
    22    21    22   ar
    23     2     3   ar
    24     3     4   ar
    25     4     5   ar
    26     5     6   ar
    27     6     7    1
    28     6     8   ar
    29     8     9   ar
    30     9    10    1
    31     9    11   ar
    32    11    12   ar
    33    12    13    2
    34    29    30    1
    35    30    31    1
    36    31    32    1
    37    31    25    1
    38    12     1   ar
    39    22    16   ar
    40    11     4   ar
    41    27    33    1
    42    20    23    1
    43     7    14    1
    44    10    15    1
@<TRIPOS>MOLECULE
*****
 41 44 0 0 0
SMALL
GASTEIGER

@<TRIPOS>ATOM
      1 C           5.7878   -1.8362   29.6474 C.ar    1  UNL1        0.2144
      2 C           6.0295   -2.6171   30.9050 C.ar    1  UNL1        0.1822
      3 O           6.5436   -4.0241   30.8271 O.2     1  UNL1       -0.4500
      4 C           6.8159   -4.6502   29.4914 C.ar    1  UNL1        0.1545
      5 C           7.3300   -6.0572   29.4134 C.ar    1  UNL1        0.0744
      6 C           7.6023   -6.6832   28.0778 C.ar    1  UNL1        0.1397
      7 O           8.1163   -8.0902   27.9998 O.3     1  UNL1       -0.5053
      8 C           7.3605   -5.9023   26.8202 C.ar    1  UNL1        0.0735
      9 C           6.8464   -4.4953   26.8981 C.ar    1  UNL1        0.1428
     10 O           6.6046   -3.7144   25.6405 O.3     1  UNL1       -0.5052
     11 C           6.5741   -3.8693   28.2337 C.ar    1  UNL1        0.1104
     12 C           6.0600   -2.4622   28.3118 C.ar    1  UNL1        0.2382
     13 O           5.8183   -1.6813   27.0541 O.2     1  UNL1       -0.2830
     14 H           8.2674   -8.5781   28.7854 H       1  UNL1        0.2922
     15 H           6.7747   -4.1054   24.8062 H       1  UNL1        0.2922
     16 C           5.7572   -1.9910   32.2407 C.ar    1  UNL1        0.0379
     17 C           4.4929   -2.3181   32.9786 C.ar    1  UNL1        0.0062
     18 C           4.2207   -1.6920   34.3141 C.ar    1  UNL1        0.0367
     19 C           5.2127   -0.7388   34.9118 C.ar    1  UNL1        0.1337
     20 O           4.9404   -0.1127   36.2475 O.3     1  UNL1       -0.5055
     21 C           6.4770   -0.4117   34.1740 C.ar    1  UNL1        0.0367
     22 C           6.7493   -1.0378   32.8384 C.ar    1  UNL1        0.0062
     23 H           4.1506   -0.3170   36.7084 H       1  UNL1        0.2922
     24 O           5.2737   -0.4291   29.7254 O.3     1  UNL1       -0.4433
     25 C           1.3497    0.6425   27.8008 C.3     1  UNL1        0.2261
     26 C           1.4382    0.4928   29.2907 C.3     1  UNL1        0.1997
     27 O           0.2187    0.7002   30.1390 O.3     1  UNL1       -0.3775
     28 C           2.7462    0.1355   29.9322 C.3     1  UNL1        0.2684
     29 C           3.9657   -0.0719   29.0839 C.3     1  UNL1        0.3321
     30 O           3.8772    0.0778   27.5939 O.3     1  UNL1       -0.3165
     31 C           2.5692    0.4350   26.9524 C.3     1  UNL1        0.1614
     32 C           2.4807    0.5848   25.4626 C.3     1  UNL1        0.0361
     33 H          -0.5358    0.9234   29.5716 H       1  UNL1        0.2106
     34 O           0.0417    0.9997   27.1593 O.3     1  UNL1       -0.4470
     35 C          -1.2302    2.9389   25.9881 C.3     1  UNL1        0.1212
     36 C          -0.4202    2.4267   27.1420 C.2     1  UNL1        0.3176
     37 O          -0.0722    3.3414   28.2787 O.2     1  UNL1       -0.2501
     38 O           2.8347   -0.0142   31.4221 O.3     1  UNL1       -0.4429
     39 C           2.7237    1.1933   32.3051 C.2     1  UNL1        0.3177
     40 C           3.9631    1.8970   32.7726 C.3     1  UNL1        0.1212
     41 O           1.3733    1.6969   32.7207 O.2     1  UNL1       -0.2501
@<TRIPOS>BOND
     1    35    36    1
     2    36    37    2
     3    36    34    1
     4    25    34    1
     5    25    26    1
     6    26    27    1
     7    26    28    1
     8    28    38    1
     9    38    39    1
    10    39    40    1
    11    39    41    2
    12    28    29    1
    13    29    24    1
    14    24     1    1
    15     1     2   ar
    16     2    16    1
    17    16    17   ar
    18    17    18   ar
    19    18    19   ar
    20    19    20    1
    21    19    21   ar
    22    21    22   ar
    23     2     3   ar
    24     3     4   ar
    25     4     5   ar
    26     5     6   ar
    27     6     7    1
    28     6     8   ar
    29     8     9   ar
    30     9    10    1
    31     9    11   ar
    32    11    12   ar
    33    12    13    2
    34    29    30    1
    35    30    31    1
    36    31    32    1
    37    31    25    1
    38    12     1   ar
    39    22    16   ar
    40    11     4   ar
    41    27    33    1
    42    20    23    1
    43     7    14    1
    44    10    15    1
@<TRIPOS>MOLECULE
*****
 41 44 0 0 0
SMALL
GASTEIGER

@<TRIPOS>ATOM
      1 C           3.3542    2.9390   34.0350 C.ar    1  UNL1        0.2144
      2 C           2.2914    3.9649   34.2957 C.ar    1  UNL1        0.1822
      3 O           1.6512    4.0544   35.6492 O.2     1  UNL1       -0.4500
      4 C           2.0739    3.1180   36.7422 C.ar    1  UNL1        0.1545
      5 C           1.4337    3.2075   38.0958 C.ar    1  UNL1        0.0744
      6 C           1.8563    2.2710   39.1886 C.ar    1  UNL1        0.1397
      7 O           1.2162    2.3605   40.5423 O.3     1  UNL1       -0.5053
      8 C           2.9191    1.2451   38.9280 C.ar    1  UNL1        0.0735
      9 C           3.5593    1.1556   37.5744 C.ar    1  UNL1        0.1428
     10 O           4.6220    0.1297   37.3137 O.3     1  UNL1       -0.5052
     11 C           3.1366    2.0920   36.4815 C.ar    1  UNL1        0.1104
     12 C           3.7768    2.0025   35.1279 C.ar    1  UNL1        0.2382
     13 O           4.8396    0.9766   34.8672 O.2     1  UNL1       -0.2830
     14 H           0.5523    3.0014   40.7051 H       1  UNL1        0.2922
     15 H           4.8861   -0.4553   37.9964 H       1  UNL1        0.2922
     16 C           1.8687    4.9014   33.2027 C.ar    1  UNL1        0.0379
     17 C           0.5330    4.7293   32.5424 C.ar    1  UNL1        0.0062
     18 C           0.1104    5.6657   31.4495 C.ar    1  UNL1        0.0367
     19 C           1.0236    6.7742   31.0169 C.ar    1  UNL1        0.1337
     20 O           0.6010    7.7107   29.9239 O.3     1  UNL1       -0.5055
     21 C           2.3594    6.9463   31.6772 C.ar    1  UNL1        0.0367
     22 C           2.7820    6.0099   32.7701 C.ar    1  UNL1        0.0062
     23 H          -0.2334    7.6032   29.5115 H       1  UNL1        0.2922
     24 O           3.9943    2.8495   32.6814 O.3     1  UNL1       -0.4433
     25 C           1.5760    1.5025   29.1335 C.3     1  UNL1        0.2261
     26 C           1.9303    0.5248   30.2145 C.3     1  UNL1        0.1997
     27 O           1.4785   -0.9019   30.1128 O.3     1  UNL1       -0.3775
     28 C           2.7364    0.9738   31.3971 C.3     1  UNL1        0.2684
     29 C           3.1882    2.4005   31.4987 C.3     1  UNL1        0.3321
     30 O           2.8339    3.3783   30.4177 O.3     1  UNL1       -0.3165
     31 C           2.0278    2.9293   29.2351 C.3     1  UNL1        0.1614
     32 C           1.6735    3.9069   28.1541 C.3     1  UNL1        0.0361
     33 H           0.9726   -1.0233   29.2941 H       1  UNL1        0.2106
     34 O           0.7699    1.0535   27.9509 O.3     1  UNL1       -0.4470
     35 C          -1.4938    0.0785   28.7724 C.3     1  UNL1        0.1212
     36 C          -0.7282    1.1108   27.9990 C.2     1  UNL1        0.3176
     37 O          -1.4607    2.2004   27.2736 O.2     1  UNL1       -0.2501
     38 O           3.0907   -0.0039   32.4781 O.3     1  UNL1       -0.4429
     39 C           4.0793   -1.0985   32.2048 C.2     1  UNL1        0.3177
     40 C           5.2636   -0.8364   31.3224 C.3     1  UNL1        0.1212
     41 O           3.8835   -2.4551   32.8140 O.2     1  UNL1       -0.2501
@<TRIPOS>BOND
     1    35    36    1
     2    36    37    2
     3    36    34    1
     4    25    34    1
     5    25    26    1
     6    26    27    1
     7    26    28    1
     8    28    38    1
     9    38    39    1
    10    39    40    1
    11    39    41    2
    12    28    29    1
    13    29    24    1
    14    24     1    1
    15     1     2   ar
    16     2    16    1
    17    16    17   ar
    18    17    18   ar
    19    18    19   ar
    20    19    20    1
    21    19    21   ar
    22    21    22   ar
    23     2     3   ar
    24     3     4   ar
    25     4     5   ar
    26     5     6   ar
    27     6     7    1
    28     6     8   ar
    29     8     9   ar
    30     9    10    1
    31     9    11   ar
    32    11    12   ar
    33    12    13    2
    34    29    30    1
    35    30    31    1
    36    31    32    1
    37    31    25    1
    38    12     1   ar
    39    22    16   ar
    40    11     4   ar
    41    27    33    1
    42    20    23    1
    43     7    14    1
    44    10    15    1
@<TRIPOS>MOLECULE
*****
 41 44 0 0 0
SMALL
GASTEIGER

@<TRIPOS>ATOM
      1 C           2.7795    2.1128   34.1788 C.ar    1  UNL1        0.2144
      2 C           2.3249    3.0330   33.0849 C.ar    1  UNL1        0.1822
      3 O           2.8177    2.8320   31.6826 O.2     1  UNL1       -0.4500
      4 C           3.7652    1.7107   31.3740 C.ar    1  UNL1        0.1545
      5 C           4.2581    1.5097   29.9717 C.ar    1  UNL1        0.0744
      6 C           5.2055    0.3885   29.6632 C.ar    1  UNL1        0.1397
      7 O           5.6984    0.1874   28.2608 O.3     1  UNL1       -0.5053
      8 C           5.6602   -0.5317   30.7571 C.ar    1  UNL1        0.0735
      9 C           5.1673   -0.3307   32.1594 C.ar    1  UNL1        0.1428
     10 O           5.6220   -1.2508   33.2533 O.3     1  UNL1       -0.5052
     11 C           4.2199    0.7905   32.4679 C.ar    1  UNL1        0.1104
     12 C           3.7270    0.9916   33.8703 C.ar    1  UNL1        0.2382
     13 O           4.1816    0.0714   34.9642 O.2     1  UNL1       -0.2830
     14 H           5.4144    0.7622   27.5774 H       1  UNL1        0.2922
     15 H           6.2138   -1.9512   33.0606 H       1  UNL1        0.2922
     16 C           1.3774    4.1542   33.3935 C.ar    1  UNL1        0.0379
     17 C           0.0419    4.2161   32.7134 C.ar    1  UNL1        0.0062
     18 C          -0.9056    5.3373   33.0220 C.ar    1  UNL1        0.0367
     19 C          -0.5175    6.3966   34.0106 C.ar    1  UNL1        0.1337
     20 O          -1.4650    7.5178   34.3191 O.3     1  UNL1       -0.5055
     21 C           0.8181    6.3347   34.6906 C.ar    1  UNL1        0.0367
     22 C           1.7655    5.2135   34.3821 C.ar    1  UNL1        0.0062
     23 H          -2.2993    7.5565   33.8943 H       1  UNL1        0.2922
     24 O           2.2866    2.3139   35.5812 O.3     1  UNL1       -0.4433
     25 C           5.0738    3.8949   38.7407 C.3     1  UNL1        0.2261
     26 C           3.6620    3.5354   39.0978 C.3     1  UNL1        0.1997
     27 O           3.1793    3.7029   40.5080 O.3     1  UNL1       -0.3775
     28 C           2.7330    3.0084   38.0446 C.3     1  UNL1        0.2684
     29 C           3.2157    2.8409   36.6344 C.3     1  UNL1        0.3321
     30 O           4.6275    3.2004   36.2772 O.3     1  UNL1       -0.3165
     31 C           5.5566    3.7274   37.3303 C.3     1  UNL1        0.1614
     32 C           6.9684    4.0870   36.9732 C.3     1  UNL1        0.0361
     33 H           3.8992    4.0511   41.0570 H       1  UNL1        0.2106
     34 O           6.0028    4.4220   39.7938 O.3     1  UNL1       -0.4470
     35 C           7.9485    2.8498   40.4956 C.3     1  UNL1        0.1212
     36 C           6.6204    3.4830   40.7872 C.2     1  UNL1        0.3176
     37 O           5.9097    3.1771   42.0722 O.2     1  UNL1       -0.2501
     38 O           1.3212    2.6489   38.4017 O.3     1  UNL1       -0.4429
     39 C           1.0515    1.7076   39.5381 C.2     1  UNL1        0.3177
     40 C           1.1394    0.2259   39.3217 C.3     1  UNL1        0.1212
     41 O           0.6938    2.2480   40.8909 O.2     1  UNL1       -0.2501
@<TRIPOS>BOND
     1    35    36    1
     2    36    37    2
     3    36    34    1
     4    25    34    1
     5    25    26    1
     6    26    27    1
     7    26    28    1
     8    28    38    1
     9    38    39    1
    10    39    40    1
    11    39    41    2
    12    28    29    1
    13    29    24    1
    14    24     1    1
    15     1     2   ar
    16     2    16    1
    17    16    17   ar
    18    17    18   ar
    19    18    19   ar
    20    19    20    1
    21    19    21   ar
    22    21    22   ar
    23     2     3   ar
    24     3     4   ar
    25     4     5   ar
    26     5     6   ar
    27     6     7    1
    28     6     8   ar
    29     8     9   ar
    30     9    10    1
    31     9    11   ar
    32    11    12   ar
    33    12    13    2
    34    29    30    1
    35    30    31    1
    36    31    32    1
    37    31    25    1
    38    12     1   ar
    39    22    16   ar
    40    11     4   ar
    41    27    33    1
    42    20    23    1
    43     7    14    1
    44    10    15    1
@<TRIPOS>MOLECULE
*****
 41 44 0 0 0
SMALL
GASTEIGER

@<TRIPOS>ATOM
      1 C           7.5352   -3.0037   24.3052 C.ar    1  UNL1        0.2144
      2 C           7.4270   -4.0251   23.2121 C.ar    1  UNL1        0.1822
      3 O           7.4819   -5.4869   23.5434 O.2     1  UNL1       -0.4500
      4 C           7.6450   -5.9275   24.9680 C.ar    1  UNL1        0.1545
      5 C           7.6999   -7.3894   25.2993 C.ar    1  UNL1        0.0744
      6 C           7.8631   -7.8299   26.7238 C.ar    1  UNL1        0.1397
      7 O           7.9180   -9.2918   27.0552 O.3     1  UNL1       -0.5053
      8 C           7.9713   -6.8085   27.8170 C.ar    1  UNL1        0.0735
      9 C           7.9163   -5.3466   27.4857 C.ar    1  UNL1        0.1428
     10 O           8.0245   -4.3252   28.5789 O.3     1  UNL1       -0.5052
     11 C           7.7532   -4.9061   26.0612 C.ar    1  UNL1        0.1104
     12 C           7.6983   -3.4442   25.7298 C.ar    1  UNL1        0.2382
     13 O           7.8065   -2.4228   26.8230 O.2     1  UNL1       -0.2830
     14 H           7.8504   -9.9299   26.3724 H       1  UNL1        0.2922
     15 H           8.1264   -4.6004   29.4687 H       1  UNL1        0.2922
     16 C           7.2638   -3.5845   21.7875 C.ar    1  UNL1        0.0379
     17 C           5.9231   -3.6802   21.1217 C.ar    1  UNL1        0.0062
     18 C           5.7601   -3.2397   19.6972 C.ar    1  UNL1        0.0367
     19 C           6.9377   -2.7034   18.9385 C.ar    1  UNL1        0.1337
     20 O           6.7745   -2.2628   17.5139 O.3     1  UNL1       -0.5055
     21 C           8.2784   -2.6076   19.6043 C.ar    1  UNL1        0.0367
     22 C           8.4414   -3.0482   21.0288 C.ar    1  UNL1        0.0062
     23 H           5.9370   -2.3226   17.0980 H       1  UNL1        0.2922
     24 O           7.4802   -1.5417   23.9738 O.3     1  UNL1       -0.4433
     25 C           3.7424    0.2232   22.1953 C.3     1  UNL1        0.2261
     26 C           3.6970   -0.4208   23.5492 C.3     1  UNL1        0.1997
     27 O           2.4056   -0.4765   24.3102 O.3     1  UNL1       -0.3775
     28 C           4.9429   -1.0091   24.1420 C.3     1  UNL1        0.2684
     29 C           6.2343   -0.9534   23.3810 C.3     1  UNL1        0.3321
     30 O           6.2797   -0.3094   22.0270 O.3     1  UNL1       -0.3165
     31 C           5.0338    0.2790   21.4341 C.3     1  UNL1        0.1614
     32 C           5.0792    0.9230   20.0802 C.3     1  UNL1        0.0361
     33 H           1.7047   -0.0547   23.7890 H       1  UNL1        0.2106
     34 O           2.4964    0.8115   21.6024 O.3     1  UNL1       -0.4470
     35 C           2.0424   -1.2504   20.0884 C.3     1  UNL1        0.1212
     36 C           1.5357   -0.0646   20.8546 C.2     1  UNL1        0.3176
     37 O           0.0681    0.2452   20.8728 O.2     1  UNL1       -0.2501
     38 O           4.8975   -1.6531   25.4960 O.3     1  UNL1       -0.4429
     39 C           4.5305   -0.8396   26.7016 C.2     1  UNL1        0.3177
     40 C           5.4935    0.1747   27.2435 C.3     1  UNL1        0.1212
     41 O           3.2003   -1.0404   27.3652 O.2     1  UNL1       -0.2501
@<TRIPOS>BOND
     1    35    36    1
     2    36    37    2
     3    36    34    1
     4    25    34    1
     5    25    26    1
     6    26    27    1
     7    26    28    1
     8    28    38    1
     9    38    39    1
    10    39    40    1
    11    39    41    2
    12    28    29    1
    13    29    24    1
    14    24     1    1
    15     1     2   ar
    16     2    16    1
    17    16    17   ar
    18    17    18   ar
    19    18    19   ar
    20    19    20    1
    21    19    21   ar
    22    21    22   ar
    23     2     3   ar
    24     3     4   ar
    25     4     5   ar
    26     5     6   ar
    27     6     7    1
    28     6     8   ar
    29     8     9   ar
    30     9    10    1
    31     9    11   ar
    32    11    12   ar
    33    12    13    2
    34    29    30    1
    35    30    31    1
    36    31    32    1
    37    31    25    1
    38    12     1   ar
    39    22    16   ar
    40    11     4   ar
    41    27    33    1
    42    20    23    1
    43     7    14    1
    44    10    15    1
@<TRIPOS>MOLECULE
*****
 41 44 0 0 0
SMALL
GASTEIGER

@<TRIPOS>ATOM
      1 C           2.0748    1.1364   31.1803 C.ar    1  UNL1        0.2144
      2 C           2.4351    2.5338   31.5895 C.ar    1  UNL1        0.1822
      3 O           1.9251    3.7019   30.7987 O.2     1  UNL1       -0.4500
      4 C           1.0548    3.4727   29.5987 C.ar    1  UNL1        0.1545
      5 C           0.5449    4.6408   28.8079 C.ar    1  UNL1        0.0744
      6 C          -0.3254    4.4116   27.6079 C.ar    1  UNL1        0.1397
      7 O          -0.8354    5.5797   26.8171 O.3     1  UNL1       -0.5053
      8 C          -0.6857    3.0142   27.1987 C.ar    1  UNL1        0.0735
      9 C          -0.1758    1.8460   27.9895 C.ar    1  UNL1        0.1428
     10 O          -0.5361    0.4486   27.5802 O.3     1  UNL1       -0.5052
     11 C           0.6945    2.0753   29.1894 C.ar    1  UNL1        0.1104
     12 C           1.2045    0.9071   29.9803 C.ar    1  UNL1        0.2382
     13 O           0.8442   -0.4903   29.5711 O.2     1  UNL1       -0.2830
     14 H          -0.6104    6.4527   27.0727 H       1  UNL1        0.2922
     15 H          -1.0797    0.3054   26.8306 H       1  UNL1        0.2922
     16 C           3.3054    2.7630   32.7896 C.ar    1  UNL1        0.0379
     17 C           2.7453    2.5777   34.1686 C.ar    1  UNL1        0.0062
     18 C           3.6156    2.8070   35.3686 C.ar    1  UNL1        0.0367
     19 C           5.0460    3.2214   35.1895 C.ar    1  UNL1        0.1337
     20 O           5.9164    3.4507   36.3896 O.3     1  UNL1       -0.5055
     21 C           5.6062    3.4067   33.8104 C.ar    1  UNL1        0.0367
     22 C           4.7358    3.1775   32.6105 C.ar    1  UNL1        0.0062
     23 H           5.5664    3.3349   37.2510 H       1  UNL1        0.2922
     24 O           2.5848   -0.0318   31.9711 O.3     1  UNL1       -0.4433
     25 C           5.9024   -2.5874   30.3242 C.3     1  UNL1        0.2261
     26 C           5.5696   -2.6407   31.7859 C.3     1  UNL1        0.1997
     27 O           6.3427   -3.5459   32.6985 O.3     1  UNL1       -0.3775
     28 C           4.4637   -1.7888   32.3348 C.3     1  UNL1        0.2684
     29 C           3.6907   -0.8837   31.4222 C.3     1  UNL1        0.3321
     30 O           4.0235   -0.8303   29.9605 O.3     1  UNL1       -0.3165
     31 C           5.1293   -1.6822   29.4115 C.3     1  UNL1        0.1614
     32 C           5.4622   -1.6289   27.9499 C.3     1  UNL1        0.0361
     33 H           7.0157   -4.0221   32.1875 H       1  UNL1        0.2106
     34 O           7.0083   -3.4393   29.7753 O.3     1  UNL1       -0.4470
     35 C           6.5304   -5.3678   28.1013 C.3     1  UNL1        0.1212
     36 C           6.7697   -4.8952   29.5046 C.2     1  UNL1        0.3176
     37 O           6.7705   -5.8785   30.6373 O.2     1  UNL1       -0.2501
     38 O           4.1309   -1.8421   33.7964 O.3     1  UNL1       -0.4429
     39 C           4.8096   -0.9088   34.7547 C.2     1  UNL1        0.3177
     40 C           6.0941   -0.2386   34.3662 C.3     1  UNL1        0.1212
     41 O           4.2038   -0.6457   36.1015 O.2     1  UNL1       -0.2501
@<TRIPOS>BOND
     1    35    36    1
     2    36    37    2
     3    36    34    1
     4    25    34    1
     5    25    26    1
     6    26    27    1
     7    26    28    1
     8    28    38    1
     9    38    39    1
    10    39    40    1
    11    39    41    2
    12    28    29    1
    13    29    24    1
    14    24     1    1
    15     1     2   ar
    16     2    16    1
    17    16    17   ar
    18    17    18   ar
    19    18    19   ar
    20    19    20    1
    21    19    21   ar
    22    21    22   ar
    23     2     3   ar
    24     3     4   ar
    25     4     5   ar
    26     5     6   ar
    27     6     7    1
    28     6     8   ar
    29     8     9   ar
    30     9    10    1
    31     9    11   ar
    32    11    12   ar
    33    12    13    2
    34    29    30    1
    35    30    31    1
    36    31    32    1
    37    31    25    1
    38    12     1   ar
    39    22    16   ar
    40    11     4   ar
    41    27    33    1
    42    20    23    1
    43     7    14    1
    44    10    15    1
