@<TRIPOS>MOLECULE
*****
 16 17 0 0 0
SMALL
GASTEIGER

@<TRIPOS>ATOM
      1 C          -8.9839  -16.2316   23.7694 C.ar    1  UNL1        0.0304
      2 C          -8.8431  -15.5322   25.0889 C.ar    1  UNL1        0.0067
      3 C          -7.3955  -15.1889   25.2794 C.ar    1  UNL1        0.0040
      4 C          -6.6414  -15.6761   24.0777 C.ar    1  UNL1        0.0230
      5 S          -7.6232  -16.3205   23.1445 S.2     1  UNL1       -0.0899
      6 C         -10.2623  -18.7011   24.8950 C.3     1  UNL1        0.0311
      7 C         -10.9003  -17.9856   23.7414 C.ar    1  UNL1       -0.0183
      8 C         -12.1775  -18.5048   23.1505 C.ar    1  UNL1        0.0164
      9 C         -12.8155  -17.7893   21.9968 C.ar    1  UNL1        0.0986
     10 N         -12.1763  -16.5546   21.4340 N.ar    1  UNL1       -0.2423
     11 C         -10.8992  -16.0353   22.0249 C.ar    1  UNL1        0.0990
     12 C         -10.2611  -16.7509   23.1786 C.ar    1  UNL1        0.0212
     13 C          -5.1650  -15.5424   23.8493 C.3     1  UNL1        0.0987
     14 N          -4.6466  -14.5394   22.8618 N.3     1  UNL1       -0.3170
     15 H          -4.9415  -14.8040   21.9219 H       1  UNL1        0.1192
     16 H          -3.6278  -14.5155   22.9044 H       1  UNL1        0.1192
@<TRIPOS>BOND
     1     6     7    1
     2     7     8   ar
     3     8     9   ar
     4     9    10   ar
     5    10    11   ar
     6    11    12   ar
     7    12     1    1
     8     1     2   ar
     9     2     3   ar
    10     3     4   ar
    11     4    13    1
    12    13    14    1
    13     4     5   ar
    14    12     7   ar
    15     5     1   ar
    16    14    15    1
    17    14    16    1
@<TRIPOS>MOLECULE
*****
 16 17 0 0 0
SMALL
GASTEIGER

@<TRIPOS>ATOM
      1 C         -10.7397  -17.7331   22.2536 C.ar    1  UNL1        0.0304
      2 C         -11.3737  -16.3925   22.0282 C.ar    1  UNL1        0.0067
      3 C         -12.7132  -16.3937   22.7032 C.ar    1  UNL1        0.0040
      4 C         -12.9071  -17.7352   23.3459 C.ar    1  UNL1        0.0230
      5 S         -11.6875  -18.5629   23.0680 S.2     1  UNL1       -0.0899
      6 C         -10.5312  -19.4005   19.7684 C.3     1  UNL1        0.0311
      7 C          -9.2900  -19.0013   20.5101 C.ar    1  UNL1       -0.0183
      8 C          -7.9446  -19.4358   20.0091 C.ar    1  UNL1        0.0164
      9 C          -6.7034  -19.0366   20.7508 C.ar    1  UNL1        0.0986
     10 N          -6.8076  -18.2029   21.9934 N.ar    1  UNL1       -0.2423
     11 C          -8.1530  -17.7684   22.4943 C.ar    1  UNL1        0.0990
     12 C          -9.3942  -18.1676   21.7526 C.ar    1  UNL1        0.0212
     13 C         -14.1096  -18.1721   24.1289 C.3     1  UNL1        0.0987
     14 N         -13.9707  -18.5308   25.5788 N.3     1  UNL1       -0.3170
     15 H         -13.3952  -19.3682   25.6682 H       1  UNL1        0.1192
     16 H         -14.8936  -18.7086   25.9750 H       1  UNL1        0.1192
@<TRIPOS>BOND
     1     6     7    1
     2     7     8   ar
     3     8     9   ar
     4     9    10   ar
     5    10    11   ar
     6    11    12   ar
     7    12     1    1
     8     1     2   ar
     9     2     3   ar
    10     3     4   ar
    11     4    13    1
    12    13    14    1
    13     4     5   ar
    14    12     7   ar
    15     5     1   ar
    16    14    15    1
    17    14    16    1
@<TRIPOS>MOLECULE
*****
 16 17 0 0 0
SMALL
GASTEIGER

@<TRIPOS>ATOM
      1 C          -9.3991  -18.6475   20.9003 C.ar    1  UNL1        0.0304
      2 C          -9.4460  -19.4444   19.6303 C.ar    1  UNL1        0.0067
      3 C          -8.0383  -19.8009   19.2544 C.ar    1  UNL1        0.0040
      4 C          -7.1213  -19.2242   20.2921 C.ar    1  UNL1        0.0230
      5 S          -7.9623  -18.5115   21.3092 S.2     1  UNL1       -0.0899
      6 C         -10.6516  -20.1992   23.1416 C.3     1  UNL1        0.0311
      7 C         -11.2075  -18.8612   22.7533 C.ar    1  UNL1       -0.0183
      8 C         -12.3897  -18.2990   23.4857 C.ar    1  UNL1        0.0164
      9 C         -12.9456  -16.9610   23.0974 C.ar    1  UNL1        0.0986
     10 N         -12.3193  -16.1852   21.9768 N.ar    1  UNL1       -0.2423
     11 C         -11.1372  -16.7474   21.2444 C.ar    1  UNL1        0.0990
     12 C         -10.5813  -18.0854   21.6327 C.ar    1  UNL1        0.0212
     13 C          -5.6259  -19.3401   20.3094 C.3     1  UNL1        0.0987
     14 N          -4.7944  -18.4478   19.4363 N.3     1  UNL1       -0.3170
     15 H          -4.9714  -18.6699   18.4566 H       1  UNL1        0.1192
     16 H          -3.8065  -18.5930   19.6446 H       1  UNL1        0.1192
@<TRIPOS>BOND
     1     6     7    1
     2     7     8   ar
     3     8     9   ar
     4     9    10   ar
     5    10    11   ar
     6    11    12   ar
     7    12     1    1
     8     1     2   ar
     9     2     3   ar
    10     3     4   ar
    11     4    13    1
    12    13    14    1
    13     4     5   ar
    14    12     7   ar
    15     5     1   ar
    16    14    15    1
    17    14    16    1
@<TRIPOS>MOLECULE
*****
 16 17 0 0 0
SMALL
GASTEIGER

@<TRIPOS>ATOM
      1 C          -9.5141  -18.9289   20.9687 C.ar    1  UNL1        0.0304
      2 C          -9.5368  -19.6437   19.6502 C.ar    1  UNL1        0.0067
      3 C          -8.1174  -19.8723   19.2224 C.ar    1  UNL1        0.0040
      4 C          -7.2174  -19.2988   20.2765 C.ar    1  UNL1        0.0230
      5 S          -8.0807  -18.7158   21.3558 S.2     1  UNL1       -0.0899
      6 C         -11.2783  -16.7264   19.9505 C.3     1  UNL1        0.0311
      7 C         -11.5962  -17.4010   21.2520 C.ar    1  UNL1       -0.0183
      8 C         -12.7962  -16.9743   22.0444 C.ar    1  UNL1        0.0164
      9 C         -13.1142  -17.6489   23.3459 C.ar    1  UNL1        0.0986
     10 N         -12.2322  -18.7501   23.8550 N.ar    1  UNL1       -0.2423
     11 C         -11.0322  -19.1768   23.0626 C.ar    1  UNL1        0.0990
     12 C         -10.7142  -18.5022   21.7611 C.ar    1  UNL1        0.0212
     13 C          -5.7176  -19.3069   20.2551 C.3     1  UNL1        0.0987
     14 N          -4.9748  -18.3393   19.3823 N.3     1  UNL1       -0.3170
     15 H          -5.1606  -18.5533   18.4025 H       1  UNL1        0.1192
     16 H          -3.9740  -18.4171   19.5634 H       1  UNL1        0.1192
@<TRIPOS>BOND
     1     6     7    1
     2     7     8   ar
     3     8     9   ar
     4     9    10   ar
     5    10    11   ar
     6    11    12   ar
     7    12     1    1
     8     1     2   ar
     9     2     3   ar
    10     3     4   ar
    11     4    13    1
    12    13    14    1
    13     4     5   ar
    14    12     7   ar
    15     5     1   ar
    16    14    15    1
    17    14    16    1
@<TRIPOS>MOLECULE
*****
 16 17 0 0 0
SMALL
GASTEIGER

@<TRIPOS>ATOM
      1 C          -6.7501  -19.8616   21.2797 C.ar    1  UNL1        0.0304
      2 C          -6.1953  -20.8404   20.2877 C.ar    1  UNL1        0.0067
      3 C          -4.7030  -20.6893   20.2724 C.ar    1  UNL1        0.0040
      4 C          -4.3355  -19.6171   21.2550 C.ar    1  UNL1        0.0230
      5 S          -5.6008  -19.1056   21.8775 S.2     1  UNL1       -0.0899
      6 C          -8.7561  -19.4528   19.0867 C.3     1  UNL1        0.0311
      7 C          -9.2028  -19.4677   20.5185 C.ar    1  UNL1       -0.0183
      8 C         -10.6525  -19.2781   20.8539 C.ar    1  UNL1        0.0164
      9 C         -11.0992  -19.2930   22.2858 C.ar    1  UNL1        0.0986
     10 N         -10.0963  -19.4974   23.3822 N.ar    1  UNL1       -0.2423
     11 C          -8.6466  -19.6870   23.0469 C.ar    1  UNL1        0.0990
     12 C          -8.1999  -19.6721   21.6150 C.ar    1  UNL1        0.0212
     13 C          -2.9467  -19.1403   21.5613 C.3     1  UNL1        0.0987
     14 N          -1.7949  -20.0995   21.5050 N.3     1  UNL1       -0.3170
     15 H          -1.9003  -20.8007   22.2383 H       1  UNL1        0.1192
     16 H          -0.9218  -19.5909   21.6438 H       1  UNL1        0.1192
@<TRIPOS>BOND
     1     6     7    1
     2     7     8   ar
     3     8     9   ar
     4     9    10   ar
     5    10    11   ar
     6    11    12   ar
     7    12     1    1
     8     1     2   ar
     9     2     3   ar
    10     3     4   ar
    11     4    13    1
    12    13    14    1
    13     4     5   ar
    14    12     7   ar
    15     5     1   ar
    16    14    15    1
    17    14    16    1
@<TRIPOS>MOLECULE
*****
 16 17 0 0 0
SMALL
GASTEIGER

@<TRIPOS>ATOM
      1 C          -8.7096  -17.7302   22.4018 C.ar    1  UNL1        0.0304
      2 C          -7.7825  -18.8536   22.0435 C.ar    1  UNL1        0.0067
      3 C          -6.3970  -18.4639   22.4661 C.ar    1  UNL1        0.0040
      4 C          -6.4679  -17.0996   23.0856 C.ar    1  UNL1        0.0230
      5 S          -7.8972  -16.6462   23.0459 S.2     1  UNL1       -0.0899
      6 C         -10.6062  -18.5450   24.5787 C.3     1  UNL1        0.0311
      7 C         -11.1377  -18.1041   23.2472 C.ar    1  UNL1       -0.0183
      8 C         -12.6175  -18.0705   23.0040 C.ar    1  UNL1        0.0164
      9 C         -13.1490  -17.6296   21.6725 C.ar    1  UNL1        0.0986
     10 N         -12.2007  -17.2222   20.5840 N.ar    1  UNL1       -0.2423
     11 C         -10.7210  -17.2557   20.8271 C.ar    1  UNL1        0.0990
     12 C         -10.1895  -17.6967   22.1587 C.ar    1  UNL1        0.0212
     13 C          -5.3124  -16.3248   23.6464 C.3     1  UNL1        0.0987
     14 N          -5.2277  -14.8428   23.4305 N.3     1  UNL1       -0.3170
     15 H          -5.0961  -14.6509   22.4374 H       1  UNL1        0.1192
     16 H          -4.4390  -14.4670   23.9569 H       1  UNL1        0.1192
@<TRIPOS>BOND
     1     6     7    1
     2     7     8   ar
     3     8     9   ar
     4     9    10   ar
     5    10    11   ar
     6    11    12   ar
     7    12     1    1
     8     1     2   ar
     9     2     3   ar
    10     3     4   ar
    11     4    13    1
    12    13    14    1
    13     4     5   ar
    14    12     7   ar
    15     5     1   ar
    16    14    15    1
    17    14    16    1
@<TRIPOS>MOLECULE
*****
 16 17 0 0 0
SMALL
GASTEIGER

@<TRIPOS>ATOM
      1 C          -7.0848  -19.1186   22.1182 C.ar    1  UNL1        0.0304
      2 C          -7.9882  -20.1226   22.7708 C.ar    1  UNL1        0.0067
      3 C          -9.3495  -19.5062   22.9000 C.ar    1  UNL1        0.0040
      4 C          -9.2876  -18.1212   22.3273 C.ar    1  UNL1        0.0230
      5 S          -7.8879  -17.8817   21.8441 S.2     1  UNL1       -0.0899
      6 C          -6.2811  -20.9418   19.8753 C.3     1  UNL1        0.0311
      7 C          -5.2314  -20.2283   20.6748 C.ar    1  UNL1       -0.0183
      8 C          -3.7798  -20.4264   20.3528 C.ar    1  UNL1        0.0164
      9 C          -2.7301  -19.7129   21.1522 C.ar    1  UNL1        0.0986
     10 N          -3.1319  -18.8014   22.2736 N.ar    1  UNL1       -0.2423
     11 C          -4.5835  -18.6033   22.5956 C.ar    1  UNL1        0.0990
     12 C          -5.6332  -19.3168   21.7962 C.ar    1  UNL1        0.0212
     13 C         -10.4254  -17.1468   22.2512 C.3     1  UNL1        0.0987
     14 N         -10.4680  -15.9694   23.1796 N.3     1  UNL1       -0.3170
     15 H         -10.5873  -16.2966   24.1383 H       1  UNL1        0.1192
     16 H         -11.2499  -15.3652   22.9268 H       1  UNL1        0.1192
@<TRIPOS>BOND
     1     6     7    1
     2     7     8   ar
     3     8     9   ar
     4     9    10   ar
     5    10    11   ar
     6    11    12   ar
     7    12     1    1
     8     1     2   ar
     9     2     3   ar
    10     3     4   ar
    11     4    13    1
    12    13    14    1
    13     4     5   ar
    14    12     7   ar
    15     5     1   ar
    16    14    15    1
    17    14    16    1
@<TRIPOS>MOLECULE
*****
 16 17 0 0 0
SMALL
GASTEIGER

@<TRIPOS>ATOM
      1 C          -7.0530  -18.8640   21.9181 C.ar    1  UNL1        0.0304
      2 C          -6.8297  -19.8786   20.8361 C.ar    1  UNL1        0.0067
      3 C          -5.3592  -20.1664   20.7670 C.ar    1  UNL1        0.0040
      4 C          -4.6737  -19.3297   21.8062 C.ar    1  UNL1        0.0230
      5 S          -5.7206  -18.5247   22.5176 S.2     1  UNL1       -0.0899
      6 C          -8.9305  -20.4806   23.6098 C.3     1  UNL1        0.0311
      7 C          -9.3152  -19.0977   23.1743 C.ar    1  UNL1       -0.0183
      8 C         -10.6386  -18.5232   23.5846 C.ar    1  UNL1        0.0164
      9 C         -11.0233  -17.1403   23.1491 C.ar    1  UNL1        0.0986
     10 N         -10.0847  -16.3320   22.3032 N.ar    1  UNL1       -0.2423
     11 C          -8.7613  -16.9066   21.8929 C.ar    1  UNL1        0.0990
     12 C          -8.3765  -18.2894   22.3284 C.ar    1  UNL1        0.0212
     13 C          -3.2001  -19.3027   22.0851 C.3     1  UNL1        0.0987
     14 N          -2.2754  -20.2021   21.3197 N.3     1  UNL1       -0.3170
     15 H          -2.4756  -21.1744   21.5540 H       1  UNL1        0.1192
     16 H          -1.3095  -19.9851   21.5654 H       1  UNL1        0.1192
@<TRIPOS>BOND
     1     6     7    1
     2     7     8   ar
     3     8     9   ar
     4     9    10   ar
     5    10    11   ar
     6    11    12   ar
     7    12     1    1
     8     1     2   ar
     9     2     3   ar
    10     3     4   ar
    11     4    13    1
    12    13    14    1
    13     4     5   ar
    14    12     7   ar
    15     5     1   ar
    16    14    15    1
    17    14    16    1
@<TRIPOS>MOLECULE
*****
 16 17 0 0 0
SMALL
GASTEIGER

@<TRIPOS>ATOM
      1 C          -8.5398  -18.7958   21.6482 C.ar    1  UNL1        0.0304
      2 C          -8.1185  -19.8916   22.5818 C.ar    1  UNL1        0.0067
      3 C          -6.7335  -20.3209   22.1979 C.ar    1  UNL1        0.0040
      4 C          -6.2987  -19.4903   21.0269 C.ar    1  UNL1        0.0230
      5 S          -7.4151  -18.5478   20.6872 S.2     1  UNL1       -0.0899
      6 C          -9.0233  -16.6222   23.6585 C.3     1  UNL1        0.0311
      7 C         -10.0966  -16.9878   22.6766 C.ar    1  UNL1       -0.0183
      8 C         -11.4116  -16.2667   22.6998 C.ar    1  UNL1        0.0164
      9 C         -12.4850  -16.6324   21.7178 C.ar    1  UNL1        0.0986
     10 N         -12.2433  -17.7192   20.7126 N.ar    1  UNL1       -0.2423
     11 C         -10.9282  -18.4403   20.6894 C.ar    1  UNL1        0.0990
     12 C          -9.8549  -18.0746   21.6714 C.ar    1  UNL1        0.0212
     13 C          -4.9793  -19.5855   20.3198 C.3     1  UNL1        0.0987
     14 N          -4.5348  -18.4795   19.4093 N.3     1  UNL1       -0.3170
     15 H          -5.1576  -18.4319   18.6029 H       1  UNL1        0.1192
     16 H          -3.5823  -18.6615   19.0930 H       1  UNL1        0.1192
@<TRIPOS>BOND
     1     6     7    1
     2     7     8   ar
     3     8     9   ar
     4     9    10   ar
     5    10    11   ar
     6    11    12   ar
     7    12     1    1
     8     1     2   ar
     9     2     3   ar
    10     3     4   ar
    11     4    13    1
    12    13    14    1
    13     4     5   ar
    14    12     7   ar
    15     5     1   ar
    16    14    15    1
    17    14    16    1
