@<TRIPOS>MOLECULE
*****
 33 37 0 0 0
SMALL
GASTEIGER

@<TRIPOS>ATOM
      1 N           5.6367   -1.2540   17.5312 N.pl3   1  UNL1       -0.2980
      2 H           6.1256   -1.4210   16.6932 H       1  UNL1        0.1536
      3 C           5.4612   -2.3591   18.5303 C.ar    1  UNL1        0.1384
      4 N           4.1656   -3.1120   18.5961 N.ar    1  UNL1       -0.2088
      5 C           3.9902   -4.2170   19.5951 C.ar    1  UNL1        0.2014
      6 N           5.1105   -4.5692   20.5283 N.ar    1  UNL1       -0.2047
      7 C           6.4062   -3.8164   20.4625 C.ar    1  UNL1        0.1697
      8 C           6.5816   -2.7113   19.4634 C.ar    1  UNL1        0.0884
      9 C           7.9624   -2.1498   19.6310 C.ar    1  UNL1        0.1264
     10 N           8.6404   -2.9078   20.7335 N.ar    1  UNL1       -0.1620
     11 N           7.6786   -3.9378   21.2474 N.ar    1  UNL1       -0.2120
     12 C           7.9429   -4.9173   22.3523 C.ar    1  UNL1        0.0844
     13 C           7.3359   -4.7017   23.7069 C.ar    1  UNL1        0.0192
     14 C           7.6001   -5.6812   24.8117 C.ar    1  UNL1        0.0015
     15 C           8.4714   -6.8764   24.5620 C.ar    1  UNL1        0.0001
     16 C           9.0783   -7.0920   23.2074 C.ar    1  UNL1        0.0015
     17 C           8.8141   -6.1125   22.1025 C.ar    1  UNL1        0.0192
     18 C           7.4248    1.1548   17.5082 C.3     1  UNL1        0.0323
     19 C           5.9612    1.3100   17.7975 C.ar    1  UNL1       -0.0084
     20 C           5.3917    2.6695   18.0754 C.ar    1  UNL1       -0.0029
     21 C           3.9280    2.8247   18.3647 C.ar    1  UNL1        0.0043
     22 C           3.0339    1.6203   18.3762 C.ar    1  UNL1        0.0549
     23 C           3.6035    0.2608   18.0983 C.ar    1  UNL1        0.0188
     24 C           5.0671    0.1056   17.8090 C.ar    1  UNL1        0.0455
     25 C           1.5703    1.7755   18.6655 C.2     1  UNL1        0.2507
     26 O           0.5892    0.7770   18.1263 O.2     1  UNL1       -0.2698
     27 N           1.0877    2.9291   19.4939 N.am    1  UNL1       -0.2632
     28 H           1.7315    3.5844   19.8478 H       1  UNL1        0.1567
     29 C          -0.3760    3.0842   19.7832 C.ar    1  UNL1        0.1767
     30 C          -1.3012    4.0755   19.1419 C.ar    1  UNL1        0.0812
     31 C          -2.6684    3.8792   19.7269 C.ar    1  UNL1        0.2152
     32 O          -2.5881    2.7665   20.7297 O.2     1  UNL1       -0.3489
     33 N          -1.1713    2.2752   20.7645 N.ar    1  UNL1       -0.0616
@<TRIPOS>BOND
     1    18    19    1
     2    19    20   ar
     3    20    21   ar
     4    21    22   ar
     5    22    25    1
     6    25    26    2
     7    25    27   am
     8    27    29    1
     9    29    30   ar
    10    30    31   ar
    11    31    32   ar
    12    32    33   ar
    13    22    23   ar
    14    23    24   ar
    15    24     1    1
    16     1     3    1
    17     3     4   ar
    18     4     5   ar
    19     5     6   ar
    20     6     7   ar
    21     7     8   ar
    22     8     9   ar
    23     9    10   ar
    24    10    11   ar
    25    11    12    1
    26    12    13   ar
    27    13    14   ar
    28    14    15   ar
    29    15    16   ar
    30    16    17   ar
    31    24    19   ar
    32     8     3   ar
    33    17    12   ar
    34    33    29   ar
    35    11     7   ar
    36    27    28    1
    37     1     2    1
@<TRIPOS>MOLECULE
*****
 33 37 0 0 0
SMALL
GASTEIGER

@<TRIPOS>ATOM
      1 N           7.3489   -2.1467   29.3123 N.pl3   1  UNL1       -0.2980
      2 H           8.2096   -1.6813   29.4209 H       1  UNL1        0.1536
      3 C           7.1270   -3.0480   28.1339 C.ar    1  UNL1        0.1384
      4 N           7.2085   -4.5363   28.3021 N.ar    1  UNL1       -0.2088
      5 C           6.9866   -5.4374   27.1237 C.ar    1  UNL1        0.2014
      6 N           6.6833   -4.8503   25.7771 N.ar    1  UNL1       -0.2047
      7 C           6.6018   -3.3620   25.6089 C.ar    1  UNL1        0.1697
      8 C           6.8237   -2.4608   26.7873 C.ar    1  UNL1        0.0884
      9 C           6.6810   -1.0427   26.3197 C.ar    1  UNL1        0.1264
     10 N           6.3709   -1.0674   24.8524 N.ar    1  UNL1       -0.1620
     11 N           6.3220   -2.5009   24.4131 N.ar    1  UNL1       -0.2120
     12 C           6.0423   -2.9877   23.0221 C.ar    1  UNL1        0.0844
     13 C           7.1470   -3.0378   22.0087 C.ar    1  UNL1        0.0192
     14 C           6.8674   -3.5246   20.6177 C.ar    1  UNL1        0.0015
     15 C           5.4829   -3.9613   20.2401 C.ar    1  UNL1        0.0001
     16 C           4.3782   -3.9112   21.2535 C.ar    1  UNL1        0.0015
     17 C           4.6579   -3.4244   22.6445 C.ar    1  UNL1        0.0192
     18 C           7.7247   -3.1256   32.1231 C.3     1  UNL1        0.0323
     19 C           6.4473   -2.4442   31.7307 C.ar    1  UNL1       -0.0084
     20 C           5.3578   -2.2522   32.7437 C.ar    1  UNL1       -0.0029
     21 C           4.0804   -1.5707   32.3512 C.ar    1  UNL1        0.0043
     22 C           3.8926   -1.0813   30.9458 C.ar    1  UNL1        0.0549
     23 C           4.9821   -1.2733   29.9328 C.ar    1  UNL1        0.0188
     24 C           6.2594   -1.9547   30.3253 C.ar    1  UNL1        0.0455
     25 C           2.6152   -0.3999   30.5533 C.2     1  UNL1        0.2507
     26 O           2.0305    0.6632   31.4355 O.2     1  UNL1       -0.2698
     27 N           1.9225   -0.7814   29.2788 N.am    1  UNL1       -0.2632
     28 H           2.3062   -1.4791   28.6998 H       1  UNL1        0.1567
     29 C           0.6452   -0.1000   28.8863 C.ar    1  UNL1        0.1767
     30 C           0.5132    1.0313   27.9102 C.ar    1  UNL1        0.0812
     31 C          -0.9380    1.4003   27.8217 C.ar    1  UNL1        0.2152
     32 O          -1.7029    0.4970   28.7432 O.2     1  UNL1       -0.3489
     33 N          -0.7244   -0.4302   29.4011 N.ar    1  UNL1       -0.0616
@<TRIPOS>BOND
     1    18    19    1
     2    19    20   ar
     3    20    21   ar
     4    21    22   ar
     5    22    25    1
     6    25    26    2
     7    25    27   am
     8    27    29    1
     9    29    30   ar
    10    30    31   ar
    11    31    32   ar
    12    32    33   ar
    13    22    23   ar
    14    23    24   ar
    15    24     1    1
    16     1     3    1
    17     3     4   ar
    18     4     5   ar
    19     5     6   ar
    20     6     7   ar
    21     7     8   ar
    22     8     9   ar
    23     9    10   ar
    24    10    11   ar
    25    11    12    1
    26    12    13   ar
    27    13    14   ar
    28    14    15   ar
    29    15    16   ar
    30    16    17   ar
    31    24    19   ar
    32     8     3   ar
    33    17    12   ar
    34    33    29   ar
    35    11     7   ar
    36    27    28    1
    37     1     2    1
@<TRIPOS>MOLECULE
*****
 33 37 0 0 0
SMALL
GASTEIGER

@<TRIPOS>ATOM
      1 N           8.2856   -3.3694   23.3322 N.pl3   1  UNL1       -0.2980
      2 H           9.0908   -2.8652   23.0741 H       1  UNL1        0.1536
      3 C           6.9378   -2.7139   23.2687 C.ar    1  UNL1        0.1384
      4 N           6.1569   -2.4812   24.5281 N.ar    1  UNL1       -0.2088
      5 C           4.8093   -1.8257   24.4646 C.ar    1  UNL1        0.2014
      6 N           4.2425   -1.4029   23.1418 N.ar    1  UNL1       -0.2047
      7 C           5.0233   -1.6356   21.8824 C.ar    1  UNL1        0.1697
      8 C           6.3710   -2.2911   21.9459 C.ar    1  UNL1        0.0884
      9 C           6.9051   -2.3893   20.5476 C.ar    1  UNL1        0.1264
     10 N           5.8874   -1.7945   19.6199 N.ar    1  UNL1       -0.1620
     11 N           4.7244   -1.3287   20.4449 N.ar    1  UNL1       -0.2120
     12 C           3.4809   -0.6714   19.9238 C.ar    1  UNL1        0.0844
     13 C           3.5681    0.3054   18.7888 C.ar    1  UNL1        0.0192
     14 C           2.3245    0.9627   18.2677 C.ar    1  UNL1        0.0015
     15 C           0.9937    0.6433   18.8817 C.ar    1  UNL1        0.0001
     16 C           0.9066   -0.3334   20.0168 C.ar    1  UNL1        0.0015
     17 C           2.1501   -0.9908   20.5378 C.ar    1  UNL1        0.0192
     18 C           8.8573   -5.5399   21.3417 C.3     1  UNL1        0.0323
     19 C           8.6922   -5.8783   22.7936 C.ar    1  UNL1       -0.0084
     20 C           8.8130   -7.3020   23.2503 C.ar    1  UNL1       -0.0029
     21 C           8.6479   -7.6404   24.7024 C.ar    1  UNL1        0.0043
     22 C           8.3621   -6.5551   25.6976 C.ar    1  UNL1        0.0549
     23 C           8.2413   -5.1315   25.2409 C.ar    1  UNL1        0.0188
     24 C           8.4063   -4.7931   23.7889 C.ar    1  UNL1        0.0455
     25 C           8.1970   -6.8935   27.1496 C.2     1  UNL1        0.2507
     26 O           8.0075   -8.3208   27.5702 O.2     1  UNL1       -0.2698
     27 N           8.2213   -5.8047   28.1809 N.am    1  UNL1       -0.2632
     28 H           8.3457   -4.8679   27.9049 H       1  UNL1        0.1567
     29 C           8.0563   -6.1431   29.6329 C.ar    1  UNL1        0.1767
     30 C           9.1041   -6.7428   30.5231 C.ar    1  UNL1        0.0812
     31 C           8.5098   -6.9116   31.8900 C.ar    1  UNL1        0.2152
     32 O           7.0946   -6.4162   31.8445 O.2     1  UNL1       -0.3489
     33 N           6.8144   -5.9412   30.4495 N.ar    1  UNL1       -0.0616
@<TRIPOS>BOND
     1    18    19    1
     2    19    20   ar
     3    20    21   ar
     4    21    22   ar
     5    22    25    1
     6    25    26    2
     7    25    27   am
     8    27    29    1
     9    29    30   ar
    10    30    31   ar
    11    31    32   ar
    12    32    33   ar
    13    22    23   ar
    14    23    24   ar
    15    24     1    1
    16     1     3    1
    17     3     4   ar
    18     4     5   ar
    19     5     6   ar
    20     6     7   ar
    21     7     8   ar
    22     8     9   ar
    23     9    10   ar
    24    10    11   ar
    25    11    12    1
    26    12    13   ar
    27    13    14   ar
    28    14    15   ar
    29    15    16   ar
    30    16    17   ar
    31    24    19   ar
    32     8     3   ar
    33    17    12   ar
    34    33    29   ar
    35    11     7   ar
    36    27    28    1
    37     1     2    1
@<TRIPOS>MOLECULE
*****
 33 37 0 0 0
SMALL
GASTEIGER

@<TRIPOS>ATOM
      1 N           5.8636   -2.8207   32.8420 N.pl3   1  UNL1       -0.2980
      2 H           5.6255   -3.6550   33.3072 H       1  UNL1        0.1536
      3 C           5.9552   -2.7965   31.3450 C.ar    1  UNL1        0.1384
      4 N           5.5146   -1.5799   30.5862 N.ar    1  UNL1       -0.2088
      5 C           5.6062   -1.5558   29.0892 C.ar    1  UNL1        0.2014
      6 N           6.1385   -2.7482   28.3510 N.ar    1  UNL1       -0.2047
      7 C           6.5792   -3.9647   29.1098 C.ar    1  UNL1        0.1697
      8 C           6.4875   -3.9888   30.6068 C.ar    1  UNL1        0.0884
      9 C           6.9935   -5.3191   31.0808 C.ar    1  UNL1        0.1264
     10 N           7.3978   -6.1170   29.8768 N.ar    1  UNL1       -0.1620
     11 N           7.1418   -5.2799   28.6586 N.ar    1  UNL1       -0.2120
     12 C           7.4025   -5.6867   27.2386 C.ar    1  UNL1        0.0844
     13 C           7.1593   -4.7140   26.1230 C.ar    1  UNL1        0.0192
     14 C           7.4201   -5.1208   24.7030 C.ar    1  UNL1        0.0015
     15 C           7.9241   -6.5004   24.3985 C.ar    1  UNL1        0.0001
     16 C           8.1673   -7.4731   25.5141 C.ar    1  UNL1        0.0015
     17 C           7.9065   -7.0663   26.9341 C.ar    1  UNL1        0.0192
     18 C           8.5584   -1.5103   32.6965 C.3     1  UNL1        0.0323
     19 C           7.4821   -0.9184   33.5575 C.ar    1  UNL1       -0.0084
     20 C           7.7532    0.3287   34.3457 C.ar    1  UNL1       -0.0029
     21 C           6.6768    0.9206   35.2067 C.ar    1  UNL1        0.0043
     22 C           5.3295    0.2654   35.2794 C.ar    1  UNL1        0.0549
     23 C           5.0584   -0.9817   34.4912 C.ar    1  UNL1        0.0188
     24 C           6.1347   -1.5736   33.6302 C.ar    1  UNL1        0.0455
     25 C           4.2532    0.8573   36.1404 C.2     1  UNL1        0.2507
     26 O           3.2229    1.7643   35.5355 O.2     1  UNL1       -0.2698
     27 N           4.2071    0.5422   37.6062 N.am    1  UNL1       -0.2632
     28 H           4.8833   -0.0532   38.0032 H       1  UNL1        0.1567
     29 C           3.1308    1.1340   38.4671 C.ar    1  UNL1        0.1767
     30 C           1.7615    0.5617   38.6848 C.ar    1  UNL1        0.0812
     31 C           1.0192    1.4761   39.6137 C.ar    1  UNL1        0.2152
     32 O           1.9298    2.6136   39.9700 O.2     1  UNL1       -0.3489
     33 N           3.2348    2.4022   39.2614 N.ar    1  UNL1       -0.0616
@<TRIPOS>BOND
     1    18    19    1
     2    19    20   ar
     3    20    21   ar
     4    21    22   ar
     5    22    25    1
     6    25    26    2
     7    25    27   am
     8    27    29    1
     9    29    30   ar
    10    30    31   ar
    11    31    32   ar
    12    32    33   ar
    13    22    23   ar
    14    23    24   ar
    15    24     1    1
    16     1     3    1
    17     3     4   ar
    18     4     5   ar
    19     5     6   ar
    20     6     7   ar
    21     7     8   ar
    22     8     9   ar
    23     9    10   ar
    24    10    11   ar
    25    11    12    1
    26    12    13   ar
    27    13    14   ar
    28    14    15   ar
    29    15    16   ar
    30    16    17   ar
    31    24    19   ar
    32     8     3   ar
    33    17    12   ar
    34    33    29   ar
    35    11     7   ar
    36    27    28    1
    37     1     2    1
@<TRIPOS>MOLECULE
*****
 33 37 0 0 0
SMALL
GASTEIGER

@<TRIPOS>ATOM
      1 N          -1.8934    4.5801   21.4871 N.pl3   1  UNL1       -0.2980
      2 H          -1.5817    5.4183   21.0753 H       1  UNL1        0.1536
      3 C          -0.9359    3.4438   21.6921 C.ar    1  UNL1        0.1384
      4 N          -0.6229    2.9678   23.0796 N.ar    1  UNL1       -0.2088
      5 C           0.3346    1.8315   23.2845 C.ar    1  UNL1        0.2014
      6 N           0.9791    1.1712   22.1019 N.ar    1  UNL1       -0.2047
      7 C           0.6660    1.6472   20.7143 C.ar    1  UNL1        0.1697
      8 C          -0.2914    2.7835   20.5094 C.ar    1  UNL1        0.0884
      9 C          -0.4054    3.0335   19.0347 C.ar    1  UNL1        0.1264
     10 N           0.4817    2.0517   18.3283 N.ar    1  UNL1       -0.1620
     11 N           1.1439    1.1949   19.3663 N.ar    1  UNL1       -0.2120
     12 C           2.1136    0.0813   19.1026 C.ar    1  UNL1        0.0844
     13 C           3.0047    0.1324   17.8971 C.ar    1  UNL1        0.0192
     14 C           3.9744   -0.9811   17.6335 C.ar    1  UNL1        0.0015
     15 C           4.0532   -2.1459   18.5754 C.ar    1  UNL1        0.0001
     16 C           3.1621   -2.1970   19.7809 C.ar    1  UNL1        0.0015
     17 C           2.1923   -1.0834   20.0446 C.ar    1  UNL1        0.0192
     18 C          -3.9500    3.6258   19.5224 C.3     1  UNL1        0.0323
     19 C          -4.3541    3.9622   20.9272 C.ar    1  UNL1       -0.0084
     20 C          -5.7865    3.8215   21.3497 C.ar    1  UNL1       -0.0029
     21 C          -6.1905    4.1579   22.7546 C.ar    1  UNL1        0.0043
     22 C          -5.1623    4.6350   23.7369 C.ar    1  UNL1        0.0549
     23 C          -3.7299    4.7758   23.3144 C.ar    1  UNL1        0.0188
     24 C          -3.3258    4.4394   21.9096 C.ar    1  UNL1        0.0455
     25 C          -5.5663    4.9715   25.1418 C.2     1  UNL1        0.2507
     26 O          -5.1293    4.0952   26.2781 O.2     1  UNL1       -0.2698
     27 N          -6.4074    6.1841   25.4103 N.am    1  UNL1       -0.2632
     28 H          -6.6942    6.7592   24.6645 H       1  UNL1        0.1567
     29 C          -6.8114    6.5205   26.8151 C.ar    1  UNL1        0.1767
     30 C          -5.9455    7.1791   27.8479 C.ar    1  UNL1        0.0812
     31 C          -6.7512    7.3230   29.1049 C.ar    1  UNL1        0.2152
     32 O          -8.1151    6.7533   28.8490 O.2     1  UNL1       -0.3489
     33 N          -8.1522    6.2573   27.4339 N.ar    1  UNL1       -0.0616
@<TRIPOS>BOND
     1    18    19    1
     2    19    20   ar
     3    20    21   ar
     4    21    22   ar
     5    22    25    1
     6    25    26    2
     7    25    27   am
     8    27    29    1
     9    29    30   ar
    10    30    31   ar
    11    31    32   ar
    12    32    33   ar
    13    22    23   ar
    14    23    24   ar
    15    24     1    1
    16     1     3    1
    17     3     4   ar
    18     4     5   ar
    19     5     6   ar
    20     6     7   ar
    21     7     8   ar
    22     8     9   ar
    23     9    10   ar
    24    10    11   ar
    25    11    12    1
    26    12    13   ar
    27    13    14   ar
    28    14    15   ar
    29    15    16   ar
    30    16    17   ar
    31    24    19   ar
    32     8     3   ar
    33    17    12   ar
    34    33    29   ar
    35    11     7   ar
    36    27    28    1
    37     1     2    1
@<TRIPOS>MOLECULE
*****
 33 37 0 0 0
SMALL
GASTEIGER

@<TRIPOS>ATOM
      1 N          -0.3245    2.7916   18.6460 N.pl3   1  UNL1       -0.2980
      2 H          -0.9100    2.8212   17.8551 H       1  UNL1        0.1536
      3 C          -0.8980    3.0229   20.0127 C.ar    1  UNL1        0.1384
      4 N          -0.0473    2.8079   21.2292 N.ar    1  UNL1       -0.2088
      5 C          -0.6207    3.0392   22.5958 C.ar    1  UNL1        0.2014
      6 N          -2.0449    3.4855   22.7459 N.ar    1  UNL1       -0.2047
      7 C          -2.8957    3.7004   21.5293 C.ar    1  UNL1        0.1697
      8 C          -2.3222    3.4691   20.1628 C.ar    1  UNL1        0.0884
      9 C          -3.3942    3.7606   19.1547 C.ar    1  UNL1        0.1264
     10 N          -4.6301    4.1721   19.8984 N.ar    1  UNL1       -0.1620
     11 N          -4.3220    4.1349   21.3660 N.ar    1  UNL1       -0.2120
     12 C          -5.2733    4.4728   22.4754 C.ar    1  UNL1        0.0844
     13 C          -4.7628    5.1131   23.7322 C.ar    1  UNL1        0.0192
     14 C          -5.7141    5.4510   24.8416 C.ar    1  UNL1        0.0015
     15 C          -7.1759    5.1487   24.6944 C.ar    1  UNL1        0.0001
     16 C          -7.6864    4.5084   23.4376 C.ar    1  UNL1        0.0015
     17 C          -6.7351    4.1705   22.3282 C.ar    1  UNL1        0.0192
     18 C           1.6097    5.0681   18.3693 C.3     1  UNL1        0.0323
     19 C           2.1080    3.6535   18.3462 C.ar    1  UNL1       -0.0084
     20 C           3.5735    3.3771   18.1847 C.ar    1  UNL1       -0.0029
     21 C           4.0718    1.9624   18.1616 C.ar    1  UNL1        0.0043
     22 C           3.1047    0.8243   18.3000 C.ar    1  UNL1        0.0549
     23 C           1.6393    1.1006   18.4614 C.ar    1  UNL1        0.0188
     24 C           1.1409    2.5152   18.4845 C.ar    1  UNL1        0.0455
     25 C           3.6031   -0.5904   18.2769 C.2     1  UNL1        0.2507
     26 O           4.0903   -1.1930   16.9926 O.2     1  UNL1       -0.2698
     27 N           3.6141   -1.4024   19.5380 N.am    1  UNL1       -0.2632
     28 H           3.2944   -1.0068   20.3809 H       1  UNL1        0.1567
     29 C           4.1125   -2.8169   19.5149 C.ar    1  UNL1        0.1767
     30 C           3.3596   -4.0087   19.0020 C.ar    1  UNL1        0.0812
     31 C           4.2330   -5.2165   19.1707 C.ar    1  UNL1        0.2152
     32 O           5.5257   -4.7711   19.7878 O.2     1  UNL1       -0.3489
     33 N           5.4511   -3.2882   20.0005 N.ar    1  UNL1       -0.0616
@<TRIPOS>BOND
     1    18    19    1
     2    19    20   ar
     3    20    21   ar
     4    21    22   ar
     5    22    25    1
     6    25    26    2
     7    25    27   am
     8    27    29    1
     9    29    30   ar
    10    30    31   ar
    11    31    32   ar
    12    32    33   ar
    13    22    23   ar
    14    23    24   ar
    15    24     1    1
    16     1     3    1
    17     3     4   ar
    18     4     5   ar
    19     5     6   ar
    20     6     7   ar
    21     7     8   ar
    22     8     9   ar
    23     9    10   ar
    24    10    11   ar
    25    11    12    1
    26    12    13   ar
    27    13    14   ar
    28    14    15   ar
    29    15    16   ar
    30    16    17   ar
    31    24    19   ar
    32     8     3   ar
    33    17    12   ar
    34    33    29   ar
    35    11     7   ar
    36    27    28    1
    37     1     2    1
@<TRIPOS>MOLECULE
*****
 33 37 0 0 0
SMALL
GASTEIGER

@<TRIPOS>ATOM
      1 N           8.0911   -4.2046   22.7513 N.pl3   1  UNL1       -0.2980
      2 H           8.9659   -3.8014   22.5480 H       1  UNL1        0.1536
      3 C           6.8881   -3.8381   21.9336 C.ar    1  UNL1        0.1384
      4 N           6.6074   -4.5581   20.6480 N.ar    1  UNL1       -0.2088
      5 C           5.4045   -4.1916   19.8303 C.ar    1  UNL1        0.2014
      6 N           4.4822   -3.1051   20.2983 N.ar    1  UNL1       -0.2047
      7 C           4.7629   -2.3852   21.5839 C.ar    1  UNL1        0.1697
      8 C           5.9658   -2.7517   22.4016 C.ar    1  UNL1        0.0884
      9 C           5.9853   -1.8730   23.6172 C.ar    1  UNL1        0.1264
     10 N           4.7944   -0.9635   23.5508 N.ar    1  UNL1       -0.1620
     11 N           4.0389   -1.2800   22.2942 N.ar    1  UNL1       -0.2120
     12 C           2.7803   -0.6092   21.8294 C.ar    1  UNL1        0.0844
     13 C           2.0997    0.3989   22.7070 C.ar    1  UNL1        0.0192
     14 C           0.8411    1.0698   22.2423 C.ar    1  UNL1        0.0015
     15 C           0.2632    0.7324   20.8998 C.ar    1  UNL1        0.0001
     16 C           0.9439   -0.2757   20.0222 C.ar    1  UNL1        0.0015
     17 C           2.2024   -0.9465   20.4869 C.ar    1  UNL1        0.0192
     18 C           8.8970   -7.0664   22.3504 C.3     1  UNL1        0.0323
     19 C           8.3641   -6.6163   23.6783 C.ar    1  UNL1       -0.0084
     20 C           8.2341   -7.5971   24.8057 C.ar    1  UNL1       -0.0029
     21 C           7.7011   -7.1470   26.1337 C.ar    1  UNL1        0.0043
     22 C           7.2982   -5.7161   26.3341 C.ar    1  UNL1        0.0549
     23 C           7.4282   -4.7353   25.2067 C.ar    1  UNL1        0.0188
     24 C           7.9611   -5.1854   23.8788 C.ar    1  UNL1        0.0455
     25 C           6.7652   -5.2660   27.6621 C.2     1  UNL1        0.2507
     26 O           5.4042   -5.7071   28.1126 O.2     1  UNL1       -0.2698
     27 N           7.5933   -4.3747   28.5395 N.am    1  UNL1       -0.2632
     28 H           8.4866   -4.0851   28.2438 H       1  UNL1        0.1567
     29 C           7.0603   -3.9246   29.8673 C.ar    1  UNL1        0.1767
     30 C           7.1968   -4.6602   31.1674 C.ar    1  UNL1        0.0812
     31 C           6.5181   -3.8501   32.2319 C.ar    1  UNL1        0.2152
     32 O           5.9622   -2.6137   31.5896 O.2     1  UNL1       -0.3489
     33 N           6.2973   -2.6598   30.1283 N.ar    1  UNL1       -0.0616
@<TRIPOS>BOND
     1    18    19    1
     2    19    20   ar
     3    20    21   ar
     4    21    22   ar
     5    22    25    1
     6    25    26    2
     7    25    27   am
     8    27    29    1
     9    29    30   ar
    10    30    31   ar
    11    31    32   ar
    12    32    33   ar
    13    22    23   ar
    14    23    24   ar
    15    24     1    1
    16     1     3    1
    17     3     4   ar
    18     4     5   ar
    19     5     6   ar
    20     6     7   ar
    21     7     8   ar
    22     8     9   ar
    23     9    10   ar
    24    10    11   ar
    25    11    12    1
    26    12    13   ar
    27    13    14   ar
    28    14    15   ar
    29    15    16   ar
    30    16    17   ar
    31    24    19   ar
    32     8     3   ar
    33    17    12   ar
    34    33    29   ar
    35    11     7   ar
    36    27    28    1
    37     1     2    1
@<TRIPOS>MOLECULE
*****
 33 37 0 0 0
SMALL
GASTEIGER

@<TRIPOS>ATOM
      1 N           6.9405   -5.7054   25.9688 N.pl3   1  UNL1       -0.2980
      2 H           6.2344   -5.1528   26.3753 H       1  UNL1        0.1536
      3 C           7.3522   -5.4689   24.5458 C.ar    1  UNL1        0.1384
      4 N           8.3572   -6.3728   23.8957 N.ar    1  UNL1       -0.2088
      5 C           8.7688   -6.1362   22.4728 C.ar    1  UNL1        0.2014
      6 N           8.1754   -4.9957   21.7001 N.ar    1  UNL1       -0.2047
      7 C           7.1704   -4.0917   22.3503 C.ar    1  UNL1        0.1697
      8 C           6.7588   -4.3283   23.7731 C.ar    1  UNL1        0.0884
      9 C           5.7538   -3.2788   24.1456 C.ar    1  UNL1        0.1264
     10 N           5.5444   -2.3936   22.9529 N.ar    1  UNL1       -0.1620
     11 N           6.4199   -2.8960   21.8434 N.ar    1  UNL1       -0.2120
     12 C           6.5262   -2.3063   20.4683 C.ar    1  UNL1        0.0844
     13 C           5.6632   -2.8299   19.3588 C.ar    1  UNL1        0.0192
     14 C           5.7695   -2.2402   17.9837 C.ar    1  UNL1        0.0015
     15 C           6.7389   -1.1267   17.7181 C.ar    1  UNL1        0.0001
     16 C           7.6019   -0.6031   18.8275 C.ar    1  UNL1        0.0015
     17 C           7.4956   -1.1928   20.2026 C.ar    1  UNL1        0.0192
     18 C           9.4722   -5.1163   27.4667 C.3     1  UNL1        0.0323
     19 C           8.8707   -6.4893   27.5212 C.ar    1  UNL1       -0.0084
     20 C           9.5349   -7.5678   28.3248 C.ar    1  UNL1       -0.0029
     21 C           8.9333   -8.9408   28.3793 C.ar    1  UNL1        0.0043
     22 C           7.6675   -9.2353   27.6304 C.ar    1  UNL1        0.0549
     23 C           7.0032   -8.1569   26.8269 C.ar    1  UNL1        0.0188
     24 C           7.6048   -6.7839   26.7723 C.ar    1  UNL1        0.0455
     25 C           7.0659  -10.6084   27.6849 C.2     1  UNL1        0.2507
     26 O           7.9538  -11.8124   27.7952 O.2     1  UNL1       -0.2698
     27 N           5.5765  -10.7774   27.6292 N.am    1  UNL1       -0.2632
     28 H           4.9938   -9.9872   27.5568 H       1  UNL1        0.1567
     29 C           4.9750  -12.1504   27.6838 C.ar    1  UNL1        0.1767
     30 C           4.2723  -12.8505   26.5586 C.ar    1  UNL1        0.0812
     31 C           3.8335  -14.1971   27.0525 C.ar    1  UNL1        0.2152
     32 O           4.2652  -14.3293   28.4830 O.2     1  UNL1       -0.3489
     33 N           4.9706  -13.0644   28.8731 N.ar    1  UNL1       -0.0616
@<TRIPOS>BOND
     1    18    19    1
     2    19    20   ar
     3    20    21   ar
     4    21    22   ar
     5    22    25    1
     6    25    26    2
     7    25    27   am
     8    27    29    1
     9    29    30   ar
    10    30    31   ar
    11    31    32   ar
    12    32    33   ar
    13    22    23   ar
    14    23    24   ar
    15    24     1    1
    16     1     3    1
    17     3     4   ar
    18     4     5   ar
    19     5     6   ar
    20     6     7   ar
    21     7     8   ar
    22     8     9   ar
    23     9    10   ar
    24    10    11   ar
    25    11    12    1
    26    12    13   ar
    27    13    14   ar
    28    14    15   ar
    29    15    16   ar
    30    16    17   ar
    31    24    19   ar
    32     8     3   ar
    33    17    12   ar
    34    33    29   ar
    35    11     7   ar
    36    27    28    1
    37     1     2    1
@<TRIPOS>MOLECULE
*****
 33 37 0 0 0
SMALL
GASTEIGER

@<TRIPOS>ATOM
      1 N           6.7551   -2.0152   29.8000 N.pl3   1  UNL1       -0.2980
      2 H           7.5558   -1.4765   29.9953 H       1  UNL1        0.1536
      3 C           5.3963   -1.5024   30.1755 C.ar    1  UNL1        0.1384
      4 N           4.9722   -1.4859   31.6142 N.ar    1  UNL1       -0.2088
      5 C           3.6134   -0.9733   31.9896 C.ar    1  UNL1        0.2014
      6 N           2.6789   -0.4771   30.9264 N.ar    1  UNL1       -0.2047
      7 C           3.1031   -0.4936   29.4877 C.ar    1  UNL1        0.1697
      8 C           4.4618   -1.0063   29.1123 C.ar    1  UNL1        0.0884
      9 C           4.6015   -0.9014   27.6224 C.ar    1  UNL1        0.1264
     10 N           3.3291   -0.3238   27.0772 N.ar    1  UNL1       -0.1620
     11 N           2.4030   -0.0718   28.2300 N.ar    1  UNL1       -0.2120
     12 C           1.0197    0.5014   28.1407 C.ar    1  UNL1        0.0844
     13 C          -0.1180   -0.1709   28.8503 C.ar    1  UNL1        0.0192
     14 C          -1.5012    0.4022   28.7610 C.ar    1  UNL1        0.0015
     15 C          -1.7469    1.6478   27.9621 C.ar    1  UNL1        0.0001
     16 C          -0.6092    2.3201   27.2524 C.ar    1  UNL1        0.0015
     17 C           0.7741    1.7469   27.3417 C.ar    1  UNL1        0.0192
     18 C           7.1294   -4.4948   31.4467 C.3     1  UNL1        0.0323
     19 C           7.0811   -4.5883   29.9505 C.ar    1  UNL1       -0.0084
     20 C           7.2200   -5.9217   29.2775 C.ar    1  UNL1       -0.0029
     21 C           7.1717   -6.0152   27.7811 C.ar    1  UNL1        0.0043
     22 C           6.9846   -4.7754   26.9578 C.ar    1  UNL1        0.0549
     23 C           6.8457   -3.4421   27.6308 C.ar    1  UNL1        0.0188
     24 C           6.8940   -3.3485   29.1271 C.ar    1  UNL1        0.0455
     25 C           6.9363   -4.8690   25.4615 C.2     1  UNL1        0.2507
     26 O           7.6234   -6.0019   24.7583 O.2     1  UNL1       -0.2698
     27 N           6.2010   -3.8297   24.6684 N.am    1  UNL1       -0.2632
     28 H           5.7500   -3.0861   25.1299 H       1  UNL1        0.1567
     29 C           6.1527   -3.9232   23.1721 C.ar    1  UNL1        0.1767
     30 C           7.3124   -3.7365   22.2392 C.ar    1  UNL1        0.0812
     31 C           6.8127   -3.9178   20.8365 C.ar    1  UNL1        0.2152
     32 O           5.3442   -4.2166   20.9026 O.2     1  UNL1       -0.3489
     33 N           4.9364   -4.2199   22.3461 N.ar    1  UNL1       -0.0616
@<TRIPOS>BOND
     1    18    19    1
     2    19    20   ar
     3    20    21   ar
     4    21    22   ar
     5    22    25    1
     6    25    26    2
     7    25    27   am
     8    27    29    1
     9    29    30   ar
    10    30    31   ar
    11    31    32   ar
    12    32    33   ar
    13    22    23   ar
    14    23    24   ar
    15    24     1    1
    16     1     3    1
    17     3     4   ar
    18     4     5   ar
    19     5     6   ar
    20     6     7   ar
    21     7     8   ar
    22     8     9   ar
    23     9    10   ar
    24    10    11   ar
    25    11    12    1
    26    12    13   ar
    27    13    14   ar
    28    14    15   ar
    29    15    16   ar
    30    16    17   ar
    31    24    19   ar
    32     8     3   ar
    33    17    12   ar
    34    33    29   ar
    35    11     7   ar
    36    27    28    1
    37     1     2    1
