@<TRIPOS>MOLECULE
*****
 30 33 0 0 0
SMALL
GASTEIGER

@<TRIPOS>ATOM
      1 C         -12.5284   -6.6219   18.9842 C.ar    1  UNL1        0.1311
      2 C         -13.2925   -5.5548   19.7104 C.ar    1  UNL1        0.0339
      3 C         -12.7902   -4.1415   19.7112 C.ar    1  UNL1        0.0027
      4 C         -11.5237   -3.7951   18.9858 C.ar    1  UNL1        0.0283
      5 C         -10.7596   -4.8622   18.2596 C.ar    1  UNL1        0.2196
      6 F          -9.4931   -4.5159   17.5342 F       1  UNL1       -0.1835
      7 N         -11.2619   -6.2756   18.2588 N.ar    1  UNL1       -0.2035
      8 N         -13.0306   -8.0353   18.9833 N.pl3   1  UNL1       -0.3144
      9 H         -12.6448   -8.6952   19.6037 H       1  UNL1        0.1485
     10 C         -14.1208   -8.4433   18.0372 C.3     1  UNL1        0.1169
     11 C         -18.3047   -9.0809   19.5661 C.ar    1  UNL1        0.2250
     12 C         -17.6009   -7.7821   19.8263 C.ar    1  UNL1        0.0574
     13 C         -16.2063   -7.5696   19.3166 C.ar    1  UNL1        0.0037
     14 C         -15.5154   -8.6559   18.5468 C.ar    1  UNL1        0.0168
     15 C         -16.2193   -9.9547   18.2866 C.ar    1  UNL1        0.0994
     16 N         -17.6139  -10.1672   18.7963 N.ar    1  UNL1       -0.2104
     17 C         -20.2492   -8.4028   21.1502 C.3     1  UNL1        0.2542
     18 O         -19.6994   -9.2935   20.0757 O.3     1  UNL1       -0.4561
     19 C         -11.0214   -2.3817   18.9867 C.3     1  UNL1        0.0582
     20 C         -11.5163   -1.4092   17.9574 C.ar    1  UNL1        0.0045
     21 C         -10.7730   -0.9689   16.7312 C.ar    1  UNL1        0.0966
     22 N         -11.6387    0.0061   15.9896 N.ar    1  UNL1       -0.2273
     23 C         -12.9170    0.1683   16.7574 C.ar    1  UNL1        0.1404
     24 N         -14.1401    0.9994   16.5063 N.ar    1  UNL1       -0.3356
     25 C         -15.2876    0.9559   17.4714 C.ar    1  UNL1        0.1035
     26 C         -15.2119    0.0812   18.6876 C.ar    1  UNL1        0.1572
     27 F         -16.3595    0.0377   19.6526 F       1  UNL1       -0.2026
     28 C         -13.9888   -0.7500   18.9387 C.ar    1  UNL1        0.0339
     29 C         -12.8414   -0.7064   17.9736 C.ar    1  UNL1        0.0341
     30 H         -14.1898    1.5736   15.7081 H       1  UNL1        0.1675
@<TRIPOS>BOND
     1    17    18    1
     2    18    11    1
     3    11    12   ar
     4    12    13   ar
     5    13    14   ar
     6    14    10    1
     7    10     8    1
     8     8     1    1
     9     1     2   ar
    10     2     3   ar
    11     3     4   ar
    12     4    19    1
    13    19    20    1
    14    20    21   ar
    15    21    22   ar
    16    22    23   ar
    17    23    24   ar
    18    24    25   ar
    19    25    26   ar
    20    26    27    1
    21    26    28   ar
    22    28    29   ar
    23     4     5   ar
    24     5     6    1
    25     5     7   ar
    26    14    15   ar
    27    15    16   ar
    28    16    11   ar
    29     7     1   ar
    30    29    20   ar
    31    29    23    1
    32     8     9    1
    33    24    30    1
@<TRIPOS>MOLECULE
*****
 30 33 0 0 0
SMALL
GASTEIGER

@<TRIPOS>ATOM
      1 C          -0.6365    2.1885   20.3028 C.ar    1  UNL1        0.1311
      2 C           0.1277    2.9618   19.2694 C.ar    1  UNL1        0.0339
      3 C           1.2471    2.3051   18.5173 C.ar    1  UNL1        0.0027
      4 C           1.6023    0.8752   18.7985 C.ar    1  UNL1        0.0283
      5 C           0.8380    0.1018   19.8319 C.ar    1  UNL1        0.2196
      6 F           1.1932   -1.3281   20.1131 F       1  UNL1       -0.1835
      7 N          -0.2813    0.7585   20.5840 N.ar    1  UNL1       -0.2035
      8 N          -1.7559    2.8450   21.0550 N.pl3   1  UNL1       -0.3144
      9 H          -1.7027    2.9393   22.0335 H       1  UNL1        0.1485
     10 C          -2.9564    3.3581   20.3164 C.3     1  UNL1        0.1169
     11 C          -6.7841    4.1760   22.5367 C.ar    1  UNL1        0.2250
     12 C          -5.5952    3.6271   23.2683 C.ar    1  UNL1        0.0574
     13 C          -4.3193    3.3545   22.5282 C.ar    1  UNL1        0.0037
     14 C          -4.2323    3.6307   21.0564 C.ar    1  UNL1        0.0168
     15 C          -5.4212    4.1796   20.3247 C.ar    1  UNL1        0.0994
     16 N          -6.6971    4.4522   21.0649 N.ar    1  UNL1       -0.2104
     17 C          -8.2227    5.7263   24.0457 C.3     1  UNL1        0.2542
     18 O          -8.0600    4.4486   23.2767 O.3     1  UNL1       -0.4561
     19 C           2.7217    0.2185   18.0463 C.3     1  UNL1        0.0582
     20 C           4.0044   -0.1137   18.7495 C.ar    1  UNL1        0.0045
     21 C           5.0360    0.8713   19.2138 C.ar    1  UNL1        0.0966
     22 N           6.1498    0.1045   19.8631 N.ar    1  UNL1       -0.2273
     23 C           5.8065   -1.3543   19.8001 C.ar    1  UNL1        0.1404
     24 N           6.5299   -2.5773   20.2806 N.ar    1  UNL1       -0.3356
     25 C           5.9274   -3.9351   20.0728 C.ar    1  UNL1        0.1035
     26 C           4.6014   -4.0700   19.3846 C.ar    1  UNL1        0.1572
     27 F           3.9989   -5.4279   19.1768 F       1  UNL1       -0.2026
     28 C           3.8780   -2.8470   18.9041 C.ar    1  UNL1        0.0339
     29 C           4.4805   -1.4892   19.1119 C.ar    1  UNL1        0.0341
     30 H           7.4002   -2.4888   20.7323 H       1  UNL1        0.1675
@<TRIPOS>BOND
     1    17    18    1
     2    18    11    1
     3    11    12   ar
     4    12    13   ar
     5    13    14   ar
     6    14    10    1
     7    10     8    1
     8     8     1    1
     9     1     2   ar
    10     2     3   ar
    11     3     4   ar
    12     4    19    1
    13    19    20    1
    14    20    21   ar
    15    21    22   ar
    16    22    23   ar
    17    23    24   ar
    18    24    25   ar
    19    25    26   ar
    20    26    27    1
    21    26    28   ar
    22    28    29   ar
    23     4     5   ar
    24     5     6    1
    25     5     7   ar
    26    14    15   ar
    27    15    16   ar
    28    16    11   ar
    29     7     1   ar
    30    29    20   ar
    31    29    23    1
    32     8     9    1
    33    24    30    1
@<TRIPOS>MOLECULE
*****
 30 33 0 0 0
SMALL
GASTEIGER

@<TRIPOS>ATOM
      1 C          -0.5192    2.1718   20.6453 C.ar    1  UNL1        0.1311
      2 C           0.1875    2.9641   19.5856 C.ar    1  UNL1        0.0339
      3 C           1.1956    2.2970   18.6976 C.ar    1  UNL1        0.0027
      4 C           1.4971    0.8377   18.8691 C.ar    1  UNL1        0.0283
      5 C           0.7904    0.0454   19.9287 C.ar    1  UNL1        0.2196
      6 F           1.0919   -1.4140   20.1003 F       1  UNL1       -0.1835
      7 N          -0.2177    0.7124   20.8168 N.ar    1  UNL1       -0.2035
      8 N          -1.5273    2.8387   21.5334 N.pl3   1  UNL1       -0.3144
      9 H          -2.4891    2.7371   21.3492 H       1  UNL1        0.1485
     10 C          -1.0702    3.6606   22.7020 C.3     1  UNL1        0.1169
     11 C          -0.4821    1.7246   26.7214 C.ar    1  UNL1        0.2250
     12 C           0.3452    1.2862   25.5495 C.ar    1  UNL1        0.0574
     13 C           0.1491    1.9315   24.2097 C.ar    1  UNL1        0.0037
     14 C          -0.8742    3.0153   24.0418 C.ar    1  UNL1        0.0168
     15 C          -1.7015    3.4538   25.2137 C.ar    1  UNL1        0.0994
     16 N          -1.5054    2.8084   26.5535 N.ar    1  UNL1       -0.2104
     17 C          -1.2933    0.0925   28.5729 C.3     1  UNL1        0.2542
     18 O          -0.2861    1.0793   28.0612 O.3     1  UNL1       -0.4561
     19 C           2.5053    0.1707   17.9810 C.3     1  UNL1        0.0582
     20 C           3.8489   -0.2122   18.5270 C.ar    1  UNL1        0.0045
     21 C           5.0111    0.7124   18.7374 C.ar    1  UNL1        0.0966
     22 N           6.1466   -0.0909   19.2990 N.ar    1  UNL1       -0.2273
     23 C           5.6862   -1.5119   19.4356 C.ar    1  UNL1        0.1404
     24 N           6.3765   -2.7473   19.9328 N.ar    1  UNL1       -0.3356
     25 C           5.6468   -4.0576   19.9529 C.ar    1  UNL1        0.1035
     26 C           4.2266   -4.1326   19.4758 C.ar    1  UNL1        0.1572
     27 F           3.4969   -5.4430   19.4959 F       1  UNL1       -0.2026
     28 C           3.5363   -2.8972   18.9786 C.ar    1  UNL1        0.0339
     29 C           4.2661   -1.5869   18.9585 C.ar    1  UNL1        0.0341
     30 H           7.3086   -2.6981   20.2459 H       1  UNL1        0.1675
@<TRIPOS>BOND
     1    17    18    1
     2    18    11    1
     3    11    12   ar
     4    12    13   ar
     5    13    14   ar
     6    14    10    1
     7    10     8    1
     8     8     1    1
     9     1     2   ar
    10     2     3   ar
    11     3     4   ar
    12     4    19    1
    13    19    20    1
    14    20    21   ar
    15    21    22   ar
    16    22    23   ar
    17    23    24   ar
    18    24    25   ar
    19    25    26   ar
    20    26    27    1
    21    26    28   ar
    22    28    29   ar
    23     4     5   ar
    24     5     6    1
    25     5     7   ar
    26    14    15   ar
    27    15    16   ar
    28    16    11   ar
    29     7     1   ar
    30    29    20   ar
    31    29    23    1
    32     8     9    1
    33    24    30    1
@<TRIPOS>MOLECULE
*****
 30 33 0 0 0
SMALL
GASTEIGER

@<TRIPOS>ATOM
      1 C           4.8901   -2.5224   19.3838 C.ar    1  UNL1        0.1311
      2 C           6.3669   -2.4451   19.1323 C.ar    1  UNL1        0.0339
      3 C           7.3330   -2.7844   20.2284 C.ar    1  UNL1        0.0027
      4 C           6.8224   -3.2011   21.5759 C.ar    1  UNL1        0.0283
      5 C           5.3457   -3.2784   21.8273 C.ar    1  UNL1        0.2196
      6 F           4.8351   -3.6951   23.1748 F       1  UNL1       -0.1835
      7 N           4.3796   -2.9391   20.7313 N.ar    1  UNL1       -0.2035
      8 N           3.9239   -2.1830   18.2878 N.pl3   1  UNL1       -0.3144
      9 H           3.5043   -2.9015   17.7616 H       1  UNL1        0.1485
     10 C           3.5970   -0.7489   17.9934 C.3     1  UNL1        0.1169
     11 C           0.2216    1.2815   20.1690 C.ar    1  UNL1        0.2250
     12 C           0.5796   -0.1376   20.4975 C.ar    1  UNL1        0.0574
     13 C           1.7047   -0.8144   19.7723 C.ar    1  UNL1        0.0037
     14 C           2.4719   -0.0721   18.7186 C.ar    1  UNL1        0.0168
     15 C           2.1139    1.3470   18.3900 C.ar    1  UNL1        0.0994
     16 N           0.9888    2.0238   19.1152 N.ar    1  UNL1       -0.2104
     17 C          -0.6458    3.2138   21.6736 C.3     1  UNL1        0.2542
     18 O          -0.9035    1.9584   20.8941 O.3     1  UNL1       -0.4561
     19 C           7.7887   -3.5405   22.6720 C.3     1  UNL1        0.0582
     20 C           8.0483   -4.9750   23.0254 C.ar    1  UNL1        0.0045
     21 C           8.7464   -5.9833   22.1618 C.ar    1  UNL1        0.0966
     22 N           8.7849   -7.2845   22.9071 N.ar    1  UNL1       -0.2273
     23 C           8.1106   -7.0803   24.2314 C.ar    1  UNL1        0.1404
     24 N           7.8523   -8.0096   25.3801 N.ar    1  UNL1       -0.3356
     25 C           7.1388   -7.5116   26.6018 C.ar    1  UNL1        0.1035
     26 C           6.6835   -6.0842   26.6749 C.ar    1  UNL1        0.1572
     27 F           5.9699   -5.5862   27.8968 F       1  UNL1       -0.2026
     28 C           6.9418   -5.1549   25.5262 C.ar    1  UNL1        0.0339
     29 C           7.6553   -5.6529   24.3044 C.ar    1  UNL1        0.0341
     30 H           8.1511   -8.9465   25.3321 H       1  UNL1        0.1675
@<TRIPOS>BOND
     1    17    18    1
     2    18    11    1
     3    11    12   ar
     4    12    13   ar
     5    13    14   ar
     6    14    10    1
     7    10     8    1
     8     8     1    1
     9     1     2   ar
    10     2     3   ar
    11     3     4   ar
    12     4    19    1
    13    19    20    1
    14    20    21   ar
    15    21    22   ar
    16    22    23   ar
    17    23    24   ar
    18    24    25   ar
    19    25    26   ar
    20    26    27    1
    21    26    28   ar
    22    28    29   ar
    23     4     5   ar
    24     5     6    1
    25     5     7   ar
    26    14    15   ar
    27    15    16   ar
    28    16    11   ar
    29     7     1   ar
    30    29    20   ar
    31    29    23    1
    32     8     9    1
    33    24    30    1
@<TRIPOS>MOLECULE
*****
 30 33 0 0 0
SMALL
GASTEIGER

@<TRIPOS>ATOM
      1 C         -12.4664   -1.0660   18.5709 C.ar    1  UNL1        0.1311
      2 C         -13.3058   -2.0073   19.3828 C.ar    1  UNL1        0.0339
      3 C         -12.8856   -3.4381   19.5439 C.ar    1  UNL1        0.0027
      4 C         -11.6260   -3.9277   18.8930 C.ar    1  UNL1        0.0283
      5 C         -10.7865   -2.9864   18.0810 C.ar    1  UNL1        0.2196
      6 F          -9.5269   -3.4760   17.4302 F       1  UNL1       -0.1835
      7 N         -11.2068   -1.5556   17.9200 N.ar    1  UNL1       -0.2035
      8 N         -12.8865    0.3649   18.4097 N.pl3   1  UNL1       -0.3144
      9 H         -12.2310    1.0880   18.5390 H       1  UNL1        0.1485
     10 C         -14.3055    0.6943   18.0517 C.3     1  UNL1        0.1169
     11 C         -17.1160    2.2559   21.2000 C.ar    1  UNL1        0.2250
     12 C         -16.2379    3.2058   20.4407 C.ar    1  UNL1        0.0574
     13 C         -15.3011    2.6853   19.3912 C.ar    1  UNL1        0.0037
     14 C         -15.2424    1.2147   19.1011 C.ar    1  UNL1        0.0168
     15 C         -16.1204    0.2648   19.8604 C.ar    1  UNL1        0.0994
     16 N         -17.0573    0.7854   20.9098 N.ar    1  UNL1       -0.2104
     17 C         -17.8784    2.3648   23.6813 C.3     1  UNL1        0.2542
     18 O         -18.0529    2.7763   22.2494 O.3     1  UNL1       -0.4561
     19 C         -11.2058   -5.3587   19.0541 C.3     1  UNL1        0.0582
     20 C         -11.7585   -6.4103   18.1384 C.ar    1  UNL1        0.0045
     21 C         -11.0368   -7.0440   16.9862 C.ar    1  UNL1        0.0966
     22 N         -11.9623   -8.0382   16.3499 N.ar    1  UNL1       -0.2273
     23 C         -13.2561   -8.0190   17.1088 C.ar    1  UNL1        0.1404
     24 N         -14.5325   -8.7876   16.9360 N.ar    1  UNL1       -0.3356
     25 C         -15.6830   -8.5502   17.8687 C.ar    1  UNL1        0.1035
     26 C         -15.5570   -7.5441   18.9741 C.ar    1  UNL1        0.1572
     27 F         -16.7076   -7.3066   19.9069 F       1  UNL1       -0.2026
     28 C         -14.2806   -6.7754   19.1468 C.ar    1  UNL1        0.0339
     29 C         -13.1301   -7.0129   18.2142 C.ar    1  UNL1        0.0341
     30 H         -14.6151   -9.4479   16.2105 H       1  UNL1        0.1675
@<TRIPOS>BOND
     1    17    18    1
     2    18    11    1
     3    11    12   ar
     4    12    13   ar
     5    13    14   ar
     6    14    10    1
     7    10     8    1
     8     8     1    1
     9     1     2   ar
    10     2     3   ar
    11     3     4   ar
    12     4    19    1
    13    19    20    1
    14    20    21   ar
    15    21    22   ar
    16    22    23   ar
    17    23    24   ar
    18    24    25   ar
    19    25    26   ar
    20    26    27    1
    21    26    28   ar
    22    28    29   ar
    23     4     5   ar
    24     5     6    1
    25     5     7   ar
    26    14    15   ar
    27    15    16   ar
    28    16    11   ar
    29     7     1   ar
    30    29    20   ar
    31    29    23    1
    32     8     9    1
    33    24    30    1
@<TRIPOS>MOLECULE
*****
 30 33 0 0 0
SMALL
GASTEIGER

@<TRIPOS>ATOM
      1 C           6.6097   -3.1438   24.3167 C.ar    1  UNL1        0.1311
      2 C           5.1515   -2.8436   24.1332 C.ar    1  UNL1        0.0339
      3 C           4.4895   -3.1174   22.8153 C.ar    1  UNL1        0.0027
      4 C           5.2856   -3.6915   21.6810 C.ar    1  UNL1        0.0283
      5 C           6.7438   -3.9917   21.8645 C.ar    1  UNL1        0.2196
      6 F           7.5398   -4.5658   20.7302 F       1  UNL1       -0.1835
      7 N           7.4057   -3.7179   23.1823 N.ar    1  UNL1       -0.2035
      8 N           7.2717   -2.8700   25.6345 N.pl3   1  UNL1       -0.3144
      9 H           7.5145   -1.9484   25.8813 H       1  UNL1        0.1485
     10 C           7.5639   -4.0003   26.5764 C.3     1  UNL1        0.1169
     11 C           6.5755   -3.5987   30.9480 C.ar    1  UNL1        0.2250
     12 C           6.7068   -2.3732   30.0931 C.ar    1  UNL1        0.0574
     13 C           7.0363   -2.5071   28.6359 C.ar    1  UNL1        0.0037
     14 C           7.2344   -3.8665   28.0336 C.ar    1  UNL1        0.0168
     15 C           7.1030   -5.0920   28.8885 C.ar    1  UNL1        0.0994
     16 N           6.7736   -4.9581   30.3457 N.ar    1  UNL1       -0.2104
     17 C           5.0269   -2.7019   32.8315 C.3     1  UNL1        0.2542
     18 O           6.2460   -3.4649   32.4052 O.3     1  UNL1       -0.4561
     19 C           4.6235   -3.9653   20.3631 C.3     1  UNL1        0.0582
     20 C           4.5397   -2.8840   19.3268 C.ar    1  UNL1        0.0045
     21 C           5.4874   -2.6854   18.1812 C.ar    1  UNL1        0.0966
     22 N           5.0269   -1.4901   17.4007 N.ar    1  UNL1       -0.2273
     23 C           3.7947   -0.9500   18.0639 C.ar    1  UNL1        0.1404
     24 N           2.9079    0.2150   17.7377 N.ar    1  UNL1       -0.3356
     25 C           1.7201    0.5185   18.6019 C.ar    1  UNL1        0.1035
     26 C           1.4190   -0.3430   19.7924 C.ar    1  UNL1        0.1572
     27 F           0.2311   -0.0395   20.6566 F       1  UNL1       -0.2026
     28 C           2.3058   -1.5080   20.1186 C.ar    1  UNL1        0.0339
     29 C           3.4936   -1.8115   19.2544 C.ar    1  UNL1        0.0341
     30 H           3.1055    0.7804   16.9563 H       1  UNL1        0.1675
@<TRIPOS>BOND
     1    17    18    1
     2    18    11    1
     3    11    12   ar
     4    12    13   ar
     5    13    14   ar
     6    14    10    1
     7    10     8    1
     8     8     1    1
     9     1     2   ar
    10     2     3   ar
    11     3     4   ar
    12     4    19    1
    13    19    20    1
    14    20    21   ar
    15    21    22   ar
    16    22    23   ar
    17    23    24   ar
    18    24    25   ar
    19    25    26   ar
    20    26    27    1
    21    26    28   ar
    22    28    29   ar
    23     4     5   ar
    24     5     6    1
    25     5     7   ar
    26    14    15   ar
    27    15    16   ar
    28    16    11   ar
    29     7     1   ar
    30    29    20   ar
    31    29    23    1
    32     8     9    1
    33    24    30    1
@<TRIPOS>MOLECULE
*****
 30 33 0 0 0
SMALL
GASTEIGER

@<TRIPOS>ATOM
      1 C           4.0880   -1.8742   24.2568 C.ar    1  UNL1        0.1311
      2 C           4.8120   -2.9525   23.5063 C.ar    1  UNL1        0.0339
      3 C           4.6358   -3.0812   22.0223 C.ar    1  UNL1        0.0027
      4 C           3.7356   -2.1317   21.2888 C.ar    1  UNL1        0.0283
      5 C           3.0116   -1.0535   22.0392 C.ar    1  UNL1        0.2196
      6 F           2.1113   -0.1040   21.3057 F       1  UNL1       -0.1835
      7 N           3.1878   -0.9248   23.5232 N.ar    1  UNL1       -0.2035
      8 N           4.2642   -1.7455   25.7408 N.pl3   1  UNL1       -0.3144
      9 H           4.8177   -2.3969   26.2291 H       1  UNL1        0.1485
     10 C           3.5971   -0.6242   26.4809 C.3     1  UNL1        0.1169
     11 C           3.3075   -0.7494   30.9698 C.ar    1  UNL1        0.2250
     12 C           4.6469   -0.8466   30.3016 C.ar    1  UNL1        0.0574
     13 C           4.7434   -0.8049   28.8053 C.ar    1  UNL1        0.0037
     14 C           3.5005   -0.6659   27.9772 C.ar    1  UNL1        0.0168
     15 C           2.1610   -0.5687   28.6453 C.ar    1  UNL1        0.0994
     16 N           2.0646   -0.6105   30.1416 N.ar    1  UNL1       -0.2104
     17 C           3.5984    0.4102   33.2764 C.3     1  UNL1        0.2542
     18 O           3.2109   -0.7912   32.4660 O.3     1  UNL1       -0.4561
     19 C           3.5593   -2.2605   19.8046 C.3     1  UNL1        0.0582
     20 C           4.6891   -1.9103   18.8821 C.ar    1  UNL1        0.0045
     21 C           5.6800   -2.8723   18.2968 C.ar    1  UNL1        0.0966
     22 N           6.6295   -2.0931   17.4358 N.ar    1  UNL1       -0.2273
     23 C           6.2254   -0.6495   17.4890 C.ar    1  UNL1        0.1404
     24 N           6.7945    0.5766   16.8389 N.ar    1  UNL1       -0.3356
     25 C           6.1643    1.9158   17.0827 C.ar    1  UNL1        0.1035
     26 C           4.9651    2.0288   17.9766 C.ar    1  UNL1        0.1572
     27 F           4.3349    3.3680   18.2204 F       1  UNL1       -0.2026
     28 C           4.3959    0.8026   18.6266 C.ar    1  UNL1        0.0339
     29 C           5.0261   -0.5365   18.3828 C.ar    1  UNL1        0.0341
     30 H           7.5816    0.5025   16.2523 H       1  UNL1        0.1675
@<TRIPOS>BOND
     1    17    18    1
     2    18    11    1
     3    11    12   ar
     4    12    13   ar
     5    13    14   ar
     6    14    10    1
     7    10     8    1
     8     8     1    1
     9     1     2   ar
    10     2     3   ar
    11     3     4   ar
    12     4    19    1
    13    19    20    1
    14    20    21   ar
    15    21    22   ar
    16    22    23   ar
    17    23    24   ar
    18    24    25   ar
    19    25    26   ar
    20    26    27    1
    21    26    28   ar
    22    28    29   ar
    23     4     5   ar
    24     5     6    1
    25     5     7   ar
    26    14    15   ar
    27    15    16   ar
    28    16    11   ar
    29     7     1   ar
    30    29    20   ar
    31    29    23    1
    32     8     9    1
    33    24    30    1
@<TRIPOS>MOLECULE
*****
 30 33 0 0 0
SMALL
GASTEIGER

@<TRIPOS>ATOM
      1 C           4.7695   -3.4339   20.6730 C.ar    1  UNL1        0.1311
      2 C           4.5268   -3.3937   22.1526 C.ar    1  UNL1        0.0339
      3 C           5.6370   -3.7286   23.1041 C.ar    1  UNL1        0.0027
      4 C           6.9899   -4.1036   22.5759 C.ar    1  UNL1        0.0283
      5 C           7.2326   -4.1438   21.0962 C.ar    1  UNL1        0.2196
      6 F           8.5855   -4.5188   20.5680 F       1  UNL1       -0.1835
      7 N           6.1224   -3.8089   20.1448 N.ar    1  UNL1       -0.2035
      8 N           3.6594   -3.0990   19.7214 N.pl3   1  UNL1       -0.3144
      9 H           2.8956   -3.7120   19.6209 H       1  UNL1        0.1485
     10 C           3.7128   -1.8302   18.9231 C.3     1  UNL1        0.1169
     11 C           0.6480    1.3919   19.6115 C.ar    1  UNL1        0.2250
     12 C           0.6125    0.1358   20.4306 C.ar    1  UNL1        0.0574
     13 C           1.6342   -0.9382   20.2011 C.ar    1  UNL1        0.0037
     14 C           2.6912   -0.7561   19.1525 C.ar    1  UNL1        0.0168
     15 C           2.7267    0.5000   18.3335 C.ar    1  UNL1        0.0994
     16 N           1.7050    1.5740   18.5630 N.ar    1  UNL1       -0.2104
     17 C          -0.6594    3.4715   18.7651 C.3     1  UNL1        0.2542
     18 O          -0.3736    2.4660   19.8409 O.3     1  UNL1       -0.4561
     19 C           8.1001   -4.4385   23.5274 C.3     1  UNL1        0.0582
     20 C           7.8962   -5.4898   24.5777 C.ar    1  UNL1        0.0045
     21 C           8.0963   -6.9656   24.3986 C.ar    1  UNL1        0.0966
     22 N           7.7801   -7.6377   25.7017 N.ar    1  UNL1       -0.2273
     23 C           7.3845   -6.5774   26.6863 C.ar    1  UNL1        0.1404
     24 N           6.9683   -6.6492   28.1255 N.ar    1  UNL1       -0.3356
     25 C           6.6238   -5.3935   28.8701 C.ar    1  UNL1        0.1035
     26 C           6.6955   -4.0660   28.1754 C.ar    1  UNL1        0.1572
     27 F           6.3510   -2.8102   28.9201 F       1  UNL1       -0.2026
     28 C           7.1118   -3.9942   26.7362 C.ar    1  UNL1        0.0339
     29 C           7.4563   -5.2499   25.9916 C.ar    1  UNL1        0.0341
     30 H           6.9212   -7.5205   28.5815 H       1  UNL1        0.1675
@<TRIPOS>BOND
     1    17    18    1
     2    18    11    1
     3    11    12   ar
     4    12    13   ar
     5    13    14   ar
     6    14    10    1
     7    10     8    1
     8     8     1    1
     9     1     2   ar
    10     2     3   ar
    11     3     4   ar
    12     4    19    1
    13    19    20    1
    14    20    21   ar
    15    21    22   ar
    16    22    23   ar
    17    23    24   ar
    18    24    25   ar
    19    25    26   ar
    20    26    27    1
    21    26    28   ar
    22    28    29   ar
    23     4     5   ar
    24     5     6    1
    25     5     7   ar
    26    14    15   ar
    27    15    16   ar
    28    16    11   ar
    29     7     1   ar
    30    29    20   ar
    31    29    23    1
    32     8     9    1
    33    24    30    1
@<TRIPOS>MOLECULE
*****
 30 33 0 0 0
SMALL
GASTEIGER

@<TRIPOS>ATOM
      1 C           7.7625   -3.8132   23.3414 C.ar    1  UNL1        0.1311
      2 C           8.2155   -4.2047   21.9661 C.ar    1  UNL1        0.0339
      3 C           7.2353   -4.2241   20.8308 C.ar    1  UNL1        0.0027
      4 C           5.8022   -3.8520   21.0708 C.ar    1  UNL1        0.0283
      5 C           5.3492   -3.4604   22.4461 C.ar    1  UNL1        0.2196
      6 F           3.9160   -3.0883   22.6861 F       1  UNL1       -0.1835
      7 N           6.3293   -3.4410   23.5814 N.ar    1  UNL1       -0.2035
      8 N           8.7426   -3.7938   24.4767 N.pl3   1  UNL1       -0.3144
      9 H           9.2181   -2.9618   24.7023 H       1  UNL1        0.1485
     10 C           8.9982   -5.0420   25.2684 C.3     1  UNL1        0.1169
     11 C           7.3043   -5.4619   29.4162 C.ar    1  UNL1        0.2250
     12 C           6.3841   -5.3943   28.2335 C.ar    1  UNL1        0.0574
     13 C           6.9488   -5.2544   26.8510 C.ar    1  UNL1        0.0037
     14 C           8.4336   -5.1819   26.6510 C.ar    1  UNL1        0.0168
     15 C           9.3538   -5.2495   27.8337 C.ar    1  UNL1        0.0994
     16 N           8.7892   -5.3894   29.2162 N.ar    1  UNL1       -0.2104
     17 C           6.8263   -4.4566   31.7637 C.3     1  UNL1        0.2542
     18 O           6.7397   -5.6018   30.7988 O.3     1  UNL1       -0.4561
     19 C           4.8220   -3.8713   19.9354 C.3     1  UNL1        0.0582
     20 C           4.6747   -2.6687   19.0512 C.ar    1  UNL1        0.0045
     21 C           5.6100   -2.2635   17.9508 C.ar    1  UNL1        0.0966
     22 N           5.0795   -1.0044   17.3317 N.ar    1  UNL1       -0.2273
     23 C           3.8163   -0.6315   18.0494 C.ar    1  UNL1        0.1404
     24 N           2.8615    0.5118   17.8726 N.ar    1  UNL1       -0.3356
     25 C           1.6566    0.6265   18.7585 C.ar    1  UNL1        0.1035
     26 C           1.4064   -0.4021   19.8213 C.ar    1  UNL1        0.1572
     27 F           0.2013   -0.2873   20.7072 F       1  UNL1       -0.2026
     28 C           2.3611   -1.5453   19.9981 C.ar    1  UNL1        0.0339
     29 C           3.5661   -1.6601   19.1122 C.ar    1  UNL1        0.0341
     30 H           3.0257    1.1869   17.1751 H       1  UNL1        0.1675
@<TRIPOS>BOND
     1    17    18    1
     2    18    11    1
     3    11    12   ar
     4    12    13   ar
     5    13    14   ar
     6    14    10    1
     7    10     8    1
     8     8     1    1
     9     1     2   ar
    10     2     3   ar
    11     3     4   ar
    12     4    19    1
    13    19    20    1
    14    20    21   ar
    15    21    22   ar
    16    22    23   ar
    17    23    24   ar
    18    24    25   ar
    19    25    26   ar
    20    26    27    1
    21    26    28   ar
    22    28    29   ar
    23     4     5   ar
    24     5     6    1
    25     5     7   ar
    26    14    15   ar
    27    15    16   ar
    28    16    11   ar
    29     7     1   ar
    30    29    20   ar
    31    29    23    1
    32     8     9    1
    33    24    30    1
