@<TRIPOS>MOLECULE
*****
 30 32 0 0 0
SMALL
GASTEIGER

@<TRIPOS>ATOM
      1 N          -0.4497    2.5249   18.8193 N.am    1  UNL1       -0.2508
      2 C          -0.9116    2.9023   20.1956 C.2     1  UNL1        0.3089
      3 O          -0.0004    2.7101   21.3715 O.2     1  UNL1       -0.2522
      4 N          -2.2847    3.4719   20.3960 N.am    1  UNL1       -0.2621
      5 C          -3.1142    3.6226   19.1553 C.3     1  UNL1        0.0968
      6 C          -4.5107    4.1542   19.0228 C.3     1  UNL1        0.0431
      7 C          -5.4224    4.6661   20.0982 C.3     1  UNL1        0.0968
      8 N          -5.1630    4.7731   21.5717 N.am    1  UNL1       -0.2622
      9 C          -6.2875    5.3326   22.3916 C.2     1  UNL1        0.3073
     10 O          -7.5682    5.7430   21.7271 O.2     1  UNL1       -0.2523
     11 N          -6.1314    5.4818   23.8760 N.am    1  UNL1       -0.2604
     12 C          -4.8508    5.0715   24.5405 C.3     1  UNL1        0.1203
     13 C          -4.6948    5.2207   26.0249 C.3     1  UNL1        0.1723
     14 S          -5.8193    5.7803   26.8447 S.O2    1  UNL1       -0.0066
     15 O          -6.5924    6.2545   28.0396 O.2     1  UNL1       -0.1729
     16 O          -4.8071    5.5346   27.9242 O.2     1  UNL1       -0.1729
     17 C          -7.1000    6.1906   26.1803 C.3     1  UNL1        0.1723
     18 C          -7.2561    6.0414   24.6959 C.3     1  UNL1        0.1203
     19 C          -3.9277    4.3944   22.3338 C.3     1  UNL1        0.1164
     20 C          -2.6468    3.8154   21.8105 C.3     1  UNL1        0.1164
     21 H          -1.0478    2.6510   18.0475 H       1  UNL1        0.1579
     22 C           2.7637    0.3870   18.4081 C.ar    1  UNL1        0.1549
     23 C           1.2892    0.5012   18.6590 C.ar    1  UNL1        0.0734
     24 C           0.9234    1.9553   18.6189 C.ar    1  UNL1        0.1771
     25 N           2.1718    2.7399   18.3431 N.ar    1  UNL1       -0.0621
     26 O           3.3091    1.7706   18.2128 O.2     1  UNL1       -0.3565
     27 C           3.9378   -0.5962   16.9401 C.3     1  UNL1        0.0076
     28 C           3.5540   -0.8871   18.3607 C.3     1  UNL1        0.0539
     29 C           3.1701   -1.1780   19.7813 C.3     1  UNL1        0.0076
     30 C           4.3442   -2.1612   18.3133 C.3     1  UNL1        0.0076
@<TRIPOS>BOND
     1    27    28    1
     2    28    29    1
     3    28    30    1
     4    28    22    1
     5    22    23   ar
     6    23    24   ar
     7    24     1    1
     8     1     2   am
     9     2     3    2
    10     2     4   am
    11     4     5    1
    12     5     6    1
    13     6     7    1
    14     7     8    1
    15     8     9   am
    16     9    10    2
    17     9    11   am
    18    11    12    1
    19    12    13    1
    20    13    14    1
    21    14    15    2
    22    14    16    2
    23    14    17    1
    24    17    18    1
    25     8    19    1
    26    19    20    1
    27    24    25   ar
    28    25    26   ar
    29    26    22   ar
    30    20     4    1
    31    18    11    1
    32     1    21    1
@<TRIPOS>MOLECULE
*****
 30 32 0 0 0
SMALL
GASTEIGER

@<TRIPOS>ATOM
      1 N           2.1869    0.7894   21.0097 N.am    1  UNL1       -0.2508
      2 C           0.8668    1.2174   20.4404 C.2     1  UNL1        0.3089
      3 O           0.4593    0.7656   19.0694 O.2     1  UNL1       -0.2522
      4 N          -0.0459    2.0973   21.2422 N.am    1  UNL1       -0.2621
      5 C           0.4569    2.4914   22.5995 C.3     1  UNL1        0.0968
      6 C          -0.2110    3.3523   23.6305 C.3     1  UNL1        0.0431
      7 C          -1.5463    4.0316   23.5589 C.3     1  UNL1        0.0968
      8 N          -2.5438    4.0179   22.4387 N.am    1  UNL1       -0.2622
      9 C          -3.7988    4.8046   22.6751 C.2     1  UNL1        0.3073
     10 O          -3.9910    5.5393   23.9686 O.2     1  UNL1       -0.2523
     11 N          -4.8617    4.8567   21.6179 N.am    1  UNL1       -0.2604
     12 C          -4.6696    4.1220   20.3243 C.3     1  UNL1        0.1203
     13 C          -5.7325    4.1741   19.2672 C.3     1  UNL1        0.1723
     14 S          -6.9875    4.9608   19.5036 S.O2    1  UNL1       -0.0066
     15 O          -8.3388    5.5654   19.2615 O.2     1  UNL1       -0.1729
     16 O          -7.2646    4.4361   18.1259 O.2     1  UNL1       -0.1729
     17 C          -7.1796    5.6955   20.7972 C.3     1  UNL1        0.1723
     18 C          -6.1168    5.6435   21.8543 C.3     1  UNL1        0.1203
     19 C          -2.4522    3.3214   21.1133 C.3     1  UNL1        0.1164
     20 C          -1.3405    2.4667   20.5809 C.3     1  UNL1        0.1164
     21 H           2.4543    1.0860   21.9095 H       1  UNL1        0.1579
     22 C           4.1554   -2.0515   19.2432 C.ar    1  UNL1        0.1549
     23 C           3.0720   -1.5898   20.1723 C.ar    1  UNL1        0.0734
     24 C           3.0996   -0.0905   20.2078 C.ar    1  UNL1        0.1771
     25 N           4.2001    0.3745   19.3007 N.ar    1  UNL1       -0.0621
     26 O           4.8525   -0.8374   18.7046 O.2     1  UNL1       -0.3565
     27 C           5.8389   -3.0520   18.4279 C.3     1  UNL1        0.0076
     28 C           4.4840   -3.4769   18.9111 C.3     1  UNL1        0.0539
     29 C           3.1290   -3.9018   19.3944 C.3     1  UNL1        0.0076
     30 C           4.8125   -4.9023   18.5791 C.3     1  UNL1        0.0076
@<TRIPOS>BOND
     1    27    28    1
     2    28    29    1
     3    28    30    1
     4    28    22    1
     5    22    23   ar
     6    23    24   ar
     7    24     1    1
     8     1     2   am
     9     2     3    2
    10     2     4   am
    11     4     5    1
    12     5     6    1
    13     6     7    1
    14     7     8    1
    15     8     9   am
    16     9    10    2
    17     9    11   am
    18    11    12    1
    19    12    13    1
    20    13    14    1
    21    14    15    2
    22    14    16    2
    23    14    17    1
    24    17    18    1
    25     8    19    1
    26    19    20    1
    27    24    25   ar
    28    25    26   ar
    29    26    22   ar
    30    20     4    1
    31    18    11    1
    32     1    21    1
@<TRIPOS>MOLECULE
*****
 30 32 0 0 0
SMALL
GASTEIGER

@<TRIPOS>ATOM
      1 N           7.2824   -4.0679   21.9195 N.am    1  UNL1       -0.2508
      2 C           6.9650   -3.4482   23.2481 C.2     1  UNL1        0.3089
      3 O           6.4282   -2.0492   23.3141 O.2     1  UNL1       -0.2522
      4 N           7.1845   -4.2276   24.5108 N.am    1  UNL1       -0.2621
      5 C           7.7241   -5.6159   24.3331 C.3     1  UNL1        0.0968
      6 C           8.0479   -6.6352   25.3851 C.3     1  UNL1        0.0431
      7 C           7.9120   -6.5178   26.8742 C.3     1  UNL1        0.0968
      8 N           7.4188   -5.3524   27.6794 N.am    1  UNL1       -0.2622
      9 C           7.4025   -5.5489   29.1663 C.2     1  UNL1        0.3073
     10 O           7.8617   -6.8494   29.7560 O.2     1  UNL1       -0.2523
     11 N           6.9271   -4.4449   30.0637 N.am    1  UNL1       -0.2604
     12 C           6.4679   -3.1443   29.4740 C.3     1  UNL1        0.1203
     13 C           5.9925   -2.0404   30.3713 C.3     1  UNL1        0.1723
     14 S           5.9762   -2.2369   31.8583 S.O2    1  UNL1       -0.0066
     15 O           5.7764   -1.9467   33.3163 O.2     1  UNL1       -0.1729
     16 O           5.4476   -0.8355   31.7750 O.2     1  UNL1       -0.1729
     17 C           6.4354   -3.5374   32.4479 C.3     1  UNL1        0.1723
     18 C           6.9109   -4.6415   31.5507 C.3     1  UNL1        0.1203
     19 C           6.9396   -4.0163   27.1942 C.3     1  UNL1        0.1164
     20 C           6.8354   -3.5158   25.7840 C.3     1  UNL1        0.1164
     21 H           7.6348   -4.9862   21.8762 H       1  UNL1        0.1579
     22 C           5.9854   -2.0976   18.8370 C.ar    1  UNL1        0.1549
     23 C           5.7370   -2.8441   20.1142 C.ar    1  UNL1        0.0734
     24 C           7.0629   -3.2885   20.6568 C.ar    1  UNL1        0.1771
     25 N           8.1308   -2.8166   19.7150 N.ar    1  UNL1       -0.0621
     26 O           7.4649   -2.0806   18.5904 O.2     1  UNL1       -0.3565
     27 C           3.9104   -2.4112   18.5271 C.3     1  UNL1        0.0076
     28 C           4.9382   -1.4770   17.9605 C.3     1  UNL1        0.0539
     29 C           5.9660   -0.5429   17.3939 C.3     1  UNL1        0.0076
     30 C           3.8910   -0.8565   17.0840 C.3     1  UNL1        0.0076
@<TRIPOS>BOND
     1    27    28    1
     2    28    29    1
     3    28    30    1
     4    28    22    1
     5    22    23   ar
     6    23    24   ar
     7    24     1    1
     8     1     2   am
     9     2     3    2
    10     2     4   am
    11     4     5    1
    12     5     6    1
    13     6     7    1
    14     7     8    1
    15     8     9   am
    16     9    10    2
    17     9    11   am
    18    11    12    1
    19    12    13    1
    20    13    14    1
    21    14    15    2
    22    14    16    2
    23    14    17    1
    24    17    18    1
    25     8    19    1
    26    19    20    1
    27    24    25   ar
    28    25    26   ar
    29    26    22   ar
    30    20     4    1
    31    18    11    1
    32     1    21    1
@<TRIPOS>MOLECULE
*****
 30 32 0 0 0
SMALL
GASTEIGER

@<TRIPOS>ATOM
      1 N           6.1340   -3.6926   31.7345 N.am    1  UNL1       -0.2508
      2 C           6.2222   -3.3125   30.2862 C.2     1  UNL1        0.3089
      3 O           5.7005   -1.9834   29.8265 O.2     1  UNL1       -0.2522
      4 N           6.8321   -4.2614   29.2975 N.am    1  UNL1       -0.2621
      5 C           7.3222   -5.5623   29.8612 C.3     1  UNL1        0.0968
      6 C           7.9725   -6.7072   29.1424 C.3     1  UNL1        0.0431
      7 C           8.2933   -6.8338   27.6827 C.3     1  UNL1        0.0968
      8 N           8.0431   -5.8470   26.5810 N.am    1  UNL1       -0.2622
      9 C           8.4840   -6.2739   25.2124 C.2     1  UNL1        0.3073
     10 O           9.1289   -7.6139   25.0161 O.2     1  UNL1       -0.2523
     11 N           8.2800   -5.3608   24.0399 N.am    1  UNL1       -0.2604
     12 C           7.6351   -4.0208   24.2362 C.3     1  UNL1        0.1203
     13 C           7.4312   -3.1078   23.0637 C.3     1  UNL1        0.1723
     14 S           7.8721   -3.5346   21.6950 S.O2    1  UNL1       -0.0066
     15 O           8.1188   -3.4908   20.2160 O.2     1  UNL1       -0.1729
     16 O           7.3129   -2.1794   21.3776 O.2     1  UNL1       -0.1729
     17 C           8.5170   -4.8746   21.4988 C.3     1  UNL1        0.1723
     18 C           8.7210   -5.7877   22.6711 C.3     1  UNL1        0.1203
     19 C           7.4102   -4.4898   26.6671 C.3     1  UNL1        0.1164
     20 C           6.8713   -3.7842   27.8761 C.3     1  UNL1        0.1164
     21 H           6.4764   -4.5649   32.0363 H       1  UNL1        0.1579
     22 C           5.2209   -0.8848   34.2542 C.ar    1  UNL1        0.1549
     23 C           6.1937   -1.5413   33.3199 C.ar    1  UNL1        0.0734
     24 C           5.5240   -2.7435   32.7232 C.ar    1  UNL1        0.1771
     25 N           4.1374   -2.8301   33.2887 N.ar    1  UNL1       -0.0621
     26 O           3.9501   -1.6815   34.2348 O.2     1  UNL1       -0.3565
     27 C           4.7389   -0.2573   36.2224 C.3     1  UNL1        0.0076
     28 C           5.4745    0.3512   35.0654 C.3     1  UNL1        0.0539
     29 C           6.2101    0.9596   33.9084 C.3     1  UNL1        0.0076
     30 C           5.7281    1.5872   35.8766 C.3     1  UNL1        0.0076
@<TRIPOS>BOND
     1    27    28    1
     2    28    29    1
     3    28    30    1
     4    28    22    1
     5    22    23   ar
     6    23    24   ar
     7    24     1    1
     8     1     2   am
     9     2     3    2
    10     2     4   am
    11     4     5    1
    12     5     6    1
    13     6     7    1
    14     7     8    1
    15     8     9   am
    16     9    10    2
    17     9    11   am
    18    11    12    1
    19    12    13    1
    20    13    14    1
    21    14    15    2
    22    14    16    2
    23    14    17    1
    24    17    18    1
    25     8    19    1
    26    19    20    1
    27    24    25   ar
    28    25    26   ar
    29    26    22   ar
    30    20     4    1
    31    18    11    1
    32     1    21    1
@<TRIPOS>MOLECULE
*****
 30 32 0 0 0
SMALL
GASTEIGER

@<TRIPOS>ATOM
      1 N           3.8169   -0.5695   30.4664 N.am    1  UNL1       -0.2508
      2 C           2.5468    0.1793   30.1905 C.2     1  UNL1        0.3089
      3 O           1.6565    0.5897   31.3258 O.2     1  UNL1       -0.2522
      4 N           2.1670    0.5177   28.7794 N.am    1  UNL1       -0.2621
      5 C           3.1261    0.0614   27.7201 C.3     1  UNL1        0.0968
      6 C           3.0334    0.2424   26.2339 C.3     1  UNL1        0.0431
      7 C           1.9589    0.9242   25.4401 C.3     1  UNL1        0.0968
      8 N           0.7115    1.5935   25.9362 N.am    1  UNL1       -0.2622
      9 C          -0.1718    2.1888   24.8801 C.2     1  UNL1        0.3073
     10 O           0.2171    2.0913   23.4347 O.2     1  UNL1       -0.2523
     11 N          -1.4441    2.8815   25.2694 N.am    1  UNL1       -0.2604
     12 C          -1.8330    2.9790   26.7148 C.3     1  UNL1        0.1203
     13 C          -3.1052    3.6717   27.1041 C.3     1  UNL1        0.1723
     14 S          -3.9885    4.2669   26.0480 S.O2    1  UNL1       -0.0066
     15 O          -5.1467    4.9824   25.4179 O.2     1  UNL1       -0.1729
     16 O          -4.7797    4.6129   27.2746 O.2     1  UNL1       -0.1729
     17 C          -3.5996    4.1695   24.6026 C.3     1  UNL1        0.1723
     18 C          -2.3274    3.4768   24.2132 C.3     1  UNL1        0.1203
     19 C           0.2307    1.7463   27.3488 C.3     1  UNL1        0.1164
     20 C           0.8785    1.2674   28.6141 C.3     1  UNL1        0.1164
     21 H           4.4012   -0.8389   29.7213 H       1  UNL1        0.1579
     22 C           5.1813   -0.7958   34.0931 C.ar    1  UNL1        0.1549
     23 C           5.0675   -0.0830   32.7782 C.ar    1  UNL1        0.0734
     24 C           4.1967   -0.9079   31.8776 C.ar    1  UNL1        0.1771
     25 N           3.7723   -2.1306   32.6358 N.ar    1  UNL1       -0.0621
     26 O           4.3808   -2.0613   34.0050 O.2     1  UNL1       -0.3565
     27 C           7.2243   -0.3781   34.4825 C.3     1  UNL1        0.0076
     28 C           5.9591   -0.3257   35.2865 C.3     1  UNL1        0.0539
     29 C           4.6938   -0.2733   36.0905 C.3     1  UNL1        0.0076
     30 C           6.7368    0.1444   36.4798 C.3     1  UNL1        0.0076
@<TRIPOS>BOND
     1    27    28    1
     2    28    29    1
     3    28    30    1
     4    28    22    1
     5    22    23   ar
     6    23    24   ar
     7    24     1    1
     8     1     2   am
     9     2     3    2
    10     2     4   am
    11     4     5    1
    12     5     6    1
    13     6     7    1
    14     7     8    1
    15     8     9   am
    16     9    10    2
    17     9    11   am
    18    11    12    1
    19    12    13    1
    20    13    14    1
    21    14    15    2
    22    14    16    2
    23    14    17    1
    24    17    18    1
    25     8    19    1
    26    19    20    1
    27    24    25   ar
    28    25    26   ar
    29    26    22   ar
    30    20     4    1
    31    18    11    1
    32     1    21    1
@<TRIPOS>MOLECULE
*****
 30 32 0 0 0
SMALL
GASTEIGER

@<TRIPOS>ATOM
      1 N           2.0059    1.3478   18.2470 N.am    1  UNL1       -0.2508
      2 C           1.0668    1.5439   19.4001 C.2     1  UNL1        0.3089
      3 O           1.2635    0.7670   20.6680 O.2     1  UNL1       -0.2522
      4 N          -0.0689    2.5169   19.2853 N.am    1  UNL1       -0.2621
      5 C          -0.1755    3.2413   17.9760 C.3     1  UNL1        0.0968
      6 C          -1.1875    4.2646   17.5530 C.3     1  UNL1        0.0431
      7 C          -2.3426    4.8163   18.3347 C.3     1  UNL1        0.0968
      8 N          -2.7713    4.4810   19.7325 N.am    1  UNL1       -0.2622
      9 C          -3.9805    5.2122   20.2355 C.2     1  UNL1        0.3073
     10 O          -4.6774    6.2051   19.3532 O.2     1  UNL1       -0.2523
     11 N          -4.4928    4.9505   21.6209 N.am    1  UNL1       -0.2604
     12 C          -3.7959    3.9576   22.5032 C.3     1  UNL1        0.1203
     13 C          -4.3082    3.6960   23.8884 C.3     1  UNL1        0.1723
     14 S          -5.5174    4.4272   24.3914 S.O2    1  UNL1       -0.0066
     15 O          -6.6173    4.8666   25.3119 O.2     1  UNL1       -0.1729
     16 O          -5.2025    3.5869   25.5935 O.2     1  UNL1       -0.1729
     17 C          -6.2144    5.4201   23.5091 C.3     1  UNL1        0.1723
     18 C          -5.7021    5.6818   22.1239 C.3     1  UNL1        0.1203
     19 C          -2.1505    3.5111   20.6938 C.3     1  UNL1        0.1164
     20 C          -0.9479    2.6371   20.4947 C.3     1  UNL1        0.1164
     21 H           1.8768    1.8577   17.4148 H       1  UNL1        0.1579
     22 C           4.3995   -1.6874   18.5998 C.ar    1  UNL1        0.1549
     23 C           3.0165   -1.1108   18.5284 C.ar    1  UNL1        0.0734
     24 C           3.1417    0.3746   18.3618 C.ar    1  UNL1        0.1771
     25 N           4.6020    0.7162   18.3302 N.ar    1  UNL1       -0.0621
     26 O           5.3793   -0.5582   18.4773 O.2     1  UNL1       -0.3565
     27 C           6.1230   -2.8714   18.2422 C.3     1  UNL1        0.0076
     28 C           4.7424   -3.1383   18.7647 C.3     1  UNL1        0.0539
     29 C           3.3619   -3.4052   19.2872 C.3     1  UNL1        0.0076
     30 C           5.0854   -4.5893   18.9296 C.3     1  UNL1        0.0076
@<TRIPOS>BOND
     1    27    28    1
     2    28    29    1
     3    28    30    1
     4    28    22    1
     5    22    23   ar
     6    23    24   ar
     7    24     1    1
     8     1     2   am
     9     2     3    2
    10     2     4   am
    11     4     5    1
    12     5     6    1
    13     6     7    1
    14     7     8    1
    15     8     9   am
    16     9    10    2
    17     9    11   am
    18    11    12    1
    19    12    13    1
    20    13    14    1
    21    14    15    2
    22    14    16    2
    23    14    17    1
    24    17    18    1
    25     8    19    1
    26    19    20    1
    27    24    25   ar
    28    25    26   ar
    29    26    22   ar
    30    20     4    1
    31    18    11    1
    32     1    21    1
@<TRIPOS>MOLECULE
*****
 30 32 0 0 0
SMALL
GASTEIGER

@<TRIPOS>ATOM
      1 N           3.2160   -0.5257   29.1567 N.am    1  UNL1       -0.2508
      2 C           3.1470   -0.5212   27.6584 C.2     1  UNL1        0.3089
      3 O           2.1124    0.3086   26.9577 O.2     1  UNL1       -0.2522
      4 N           4.1126   -1.3465   26.8606 N.am    1  UNL1       -0.2621
      5 C           5.1057   -2.1386   27.6585 C.3     1  UNL1        0.0968
      6 C           6.1890   -3.0505   27.1633 C.3     1  UNL1        0.0431
      7 C           6.5466   -3.3954   25.7481 C.3     1  UNL1        0.0968
      8 N           5.9095   -2.9137   24.4783 N.am    1  UNL1       -0.2622
      9 C           6.5030   -3.4483   23.2088 C.2     1  UNL1        0.3073
     10 O           7.6598   -4.4016   23.2649 O.2     1  UNL1       -0.2523
     11 N           5.9398   -3.0297   21.8830 N.am    1  UNL1       -0.2604
     12 C           4.7830   -2.0764   21.8269 C.3     1  UNL1        0.1203
     13 C           4.2199   -1.6578   20.5012 C.3     1  UNL1        0.1723
     14 S           4.8135   -2.1924   19.2316 S.O2    1  UNL1       -0.0066
     15 O           5.0316   -2.4239   17.7657 O.2     1  UNL1       -0.1729
     16 O           3.7324   -1.3195   18.6663 O.2     1  UNL1       -0.1729
     17 C           5.9702   -3.1457   19.2877 C.3     1  UNL1        0.1723
     18 C           6.5335   -3.5644   20.6134 C.3     1  UNL1        0.1203
     19 C           4.7573   -1.9681   24.3104 C.3     1  UNL1        0.1164
     20 C           3.9576   -1.2707   25.3707 C.3     1  UNL1        0.1164
     21 H           3.8951   -1.0703   29.6166 H       1  UNL1        0.1579
     22 C           1.3378    1.9374   31.4959 C.ar    1  UNL1        0.1549
     23 C           2.6107    1.3796   30.9312 C.ar    1  UNL1        0.0734
     24 C           2.2503    0.2997   29.9545 C.ar    1  UNL1        0.1771
     25 N           0.7548    0.1901   29.9155 N.ar    1  UNL1       -0.0621
     26 O           0.1909    1.2022   30.8682 O.2     1  UNL1       -0.3565
     27 C           0.4422    3.8600   31.5350 C.3     1  UNL1        0.0076
     28 C           1.2308    3.0372   32.5103 C.3     1  UNL1        0.0539
     29 C           2.0194    2.2145   33.4856 C.3     1  UNL1        0.0076
     30 C           1.1237    4.1371   33.5246 C.3     1  UNL1        0.0076
@<TRIPOS>BOND
     1    27    28    1
     2    28    29    1
     3    28    30    1
     4    28    22    1
     5    22    23   ar
     6    23    24   ar
     7    24     1    1
     8     1     2   am
     9     2     3    2
    10     2     4   am
    11     4     5    1
    12     5     6    1
    13     6     7    1
    14     7     8    1
    15     8     9   am
    16     9    10    2
    17     9    11   am
    18    11    12    1
    19    12    13    1
    20    13    14    1
    21    14    15    2
    22    14    16    2
    23    14    17    1
    24    17    18    1
    25     8    19    1
    26    19    20    1
    27    24    25   ar
    28    25    26   ar
    29    26    22   ar
    30    20     4    1
    31    18    11    1
    32     1    21    1
@<TRIPOS>MOLECULE
*****
 30 32 0 0 0
SMALL
GASTEIGER

@<TRIPOS>ATOM
      1 N           5.9981   -2.7896   29.9839 N.am    1  UNL1       -0.2508
      2 C           5.8718   -2.3053   31.3979 C.2     1  UNL1        0.3089
      3 O           6.6651   -2.9612   32.4890 O.2     1  UNL1       -0.2522
      4 N           4.9524   -1.1650   31.7209 N.am    1  UNL1       -0.2621
      5 C           4.2064   -0.5810   30.5578 C.3     1  UNL1        0.0968
      6 C           3.2243    0.5528   30.5508 C.3     1  UNL1        0.0431
      7 C           2.7455    1.3824   31.7050 C.3     1  UNL1        0.0968
      8 N           3.1306    1.2834   33.1514 N.am    1  UNL1       -0.2622
      9 C           2.4693    2.2678   34.0698 C.2     1  UNL1        0.3073
     10 O           1.4926    3.2657   33.5219 O.2     1  UNL1       -0.2523
     11 N           2.7846    2.2542   35.5363 N.am    1  UNL1       -0.2604
     12 C           3.7612    1.2563   36.0842 C.3     1  UNL1        0.1203
     13 C           4.0765    1.2428   37.5507 C.3     1  UNL1        0.1723
     14 S           3.4151    2.2271   38.4691 S.O2    1  UNL1       -0.0066
     15 O           3.0488    2.9524   39.7300 O.2     1  UNL1       -0.1729
     16 O           4.2646    1.4811   39.4550 O.2     1  UNL1       -0.1729
     17 C           2.4385    3.2251   37.9212 C.3     1  UNL1        0.1723
     18 C           2.1232    3.2387   36.4548 C.3     1  UNL1        0.1203
     19 C           4.0896    0.3302   33.8007 C.3     1  UNL1        0.1164
     20 C           4.9003   -0.7595   33.1640 C.3     1  UNL1        0.1164
     21 H           5.4774   -2.3591   29.2678 H       1  UNL1        0.1579
     22 C           7.8425   -5.9356   28.6547 C.ar    1  UNL1        0.1549
     23 C           6.6651   -5.0061   28.6470 C.ar    1  UNL1        0.0734
     24 C           6.9176   -3.9300   29.6610 C.ar    1  UNL1        0.1771
     25 N           8.2510   -4.1943   30.2953 N.ar    1  UNL1       -0.0621
     26 O           8.8225   -5.4338   29.6734 O.2     1  UNL1       -0.3565
     27 C           6.9597   -6.6358   26.8573 C.3     1  UNL1        0.0076
     28 C           8.0103   -7.1531   27.7946 C.3     1  UNL1        0.0539
     29 C           9.0610   -7.6704   28.7320 C.3     1  UNL1        0.0076
     30 C           8.1781   -8.3705   26.9346 C.3     1  UNL1        0.0076
@<TRIPOS>BOND
     1    27    28    1
     2    28    29    1
     3    28    30    1
     4    28    22    1
     5    22    23   ar
     6    23    24   ar
     7    24     1    1
     8     1     2   am
     9     2     3    2
    10     2     4   am
    11     4     5    1
    12     5     6    1
    13     6     7    1
    14     7     8    1
    15     8     9   am
    16     9    10    2
    17     9    11   am
    18    11    12    1
    19    12    13    1
    20    13    14    1
    21    14    15    2
    22    14    16    2
    23    14    17    1
    24    17    18    1
    25     8    19    1
    26    19    20    1
    27    24    25   ar
    28    25    26   ar
    29    26    22   ar
    30    20     4    1
    31    18    11    1
    32     1    21    1
@<TRIPOS>MOLECULE
*****
 30 32 0 0 0
SMALL
GASTEIGER

@<TRIPOS>ATOM
      1 N           3.1434    0.1775   29.1132 N.am    1  UNL1       -0.2508
      2 C           3.5797   -0.6377   27.9322 C.2     1  UNL1        0.3089
      3 O           4.4270   -1.8587   28.1355 O.2     1  UNL1       -0.2522
      4 N           3.1688   -0.2320   26.5478 N.am    1  UNL1       -0.2621
      5 C           2.3228    1.0033   26.4558 C.3     1  UNL1        0.0968
      6 C           1.7572    1.6604   25.2316 C.3     1  UNL1        0.0431
      7 C           1.8981    1.2447   23.7974 C.3     1  UNL1        0.0968
      8 N           2.6392    0.0691   23.2328 N.am    1  UNL1       -0.2622
      9 C           2.5905   -0.0754   21.7406 C.2     1  UNL1        0.3073
     10 O           1.8335    0.9220   20.9148 O.2     1  UNL1       -0.2523
     11 N           3.2988   -1.2175   21.0742 N.am    1  UNL1       -0.2604
     12 C           4.0558   -2.2150   21.9000 C.3     1  UNL1        0.1203
     13 C           4.7641   -3.3569   21.2335 C.3     1  UNL1        0.1723
     14 S           4.7154   -3.5014   19.7414 S.O2    1  UNL1       -0.0066
     15 O           4.9591   -4.0598   18.3706 O.2     1  UNL1       -0.1729
     16 O           5.5571   -4.6929   20.0911 O.2     1  UNL1       -0.1729
     17 C           3.9584   -2.5039   18.9155 C.3     1  UNL1        0.1723
     18 C           3.2501   -1.3620   19.5819 C.3     1  UNL1        0.1203
     19 C           3.4225   -0.9811   23.9632 C.3     1  UNL1        0.1164
     20 C           3.6582   -1.1151   25.4385 C.3     1  UNL1        0.1164
     21 H           2.5873    0.9789   28.9798 H       1  UNL1        0.1579
     22 C           4.8265   -0.4689   32.5506 C.ar    1  UNL1        0.1549
     23 C           4.8310    0.1541   31.1860 C.ar    1  UNL1        0.0734
     24 C           3.5543   -0.2282   30.4977 C.ar    1  UNL1        0.1771
     25 N           2.7607   -1.0875   31.4367 N.ar    1  UNL1       -0.0621
     26 O           3.5469   -1.2362   32.7054 O.2     1  UNL1       -0.3565
     27 C           4.9910   -0.9173   34.6174 C.3     1  UNL1        0.0076
     28 C           5.9110   -0.3461   33.5795 C.3     1  UNL1        0.0539
     29 C           6.8311    0.2250   32.5415 C.3     1  UNL1        0.0076
     30 C           6.9956   -0.2233   34.6084 C.3     1  UNL1        0.0076
@<TRIPOS>BOND
     1    27    28    1
     2    28    29    1
     3    28    30    1
     4    28    22    1
     5    22    23   ar
     6    23    24   ar
     7    24     1    1
     8     1     2   am
     9     2     3    2
    10     2     4   am
    11     4     5    1
    12     5     6    1
    13     6     7    1
    14     7     8    1
    15     8     9   am
    16     9    10    2
    17     9    11   am
    18    11    12    1
    19    12    13    1
    20    13    14    1
    21    14    15    2
    22    14    16    2
    23    14    17    1
    24    17    18    1
    25     8    19    1
    26    19    20    1
    27    24    25   ar
    28    25    26   ar
    29    26    22   ar
    30    20     4    1
    31    18    11    1
    32     1    21    1
