@<TRIPOS>MOLECULE
*****
 21 23 0 0 0
SMALL
GASTEIGER

@<TRIPOS>ATOM
      1 C          -9.0157  -18.6949   21.6129 C.ar    1  UNL1        0.0428
      2 C          -9.6503  -19.3806   20.4393 C.ar    1  UNL1        0.0077
      3 C         -10.7087  -18.6775   19.6423 C.ar    1  UNL1        0.0006
      4 C         -11.1326  -17.2887   20.0187 C.ar    1  UNL1        0.0013
      5 C         -10.4981  -16.6031   21.1922 C.ar    1  UNL1        0.0150
      6 C          -9.4396  -17.3062   21.9894 C.ar    1  UNL1        0.0540
      7 N          -8.8051  -16.6205   23.1629 N.pl3   1  UNL1       -0.3043
      8 C          -9.2750  -16.9261   24.5542 C.3     1  UNL1        0.1079
      9 C          -8.6405  -16.2405   25.7277 C.3     1  UNL1        0.0903
     10 N          -7.5359  -15.2491   25.5100 N.3     1  UNL1       -0.2946
     11 C          -7.0660  -14.9435   24.1187 C.3     1  UNL1        0.0903
     12 C          -7.7006  -15.6292   22.9451 C.3     1  UNL1        0.1079
     13 H          -6.7258  -15.5930   26.0255 H       1  UNL1        0.1233
     14 S          -7.9573  -19.3980   22.4100 S.3     1  UNL1       -0.0857
     15 CL         -2.2861  -19.4798   20.4527 Cl      1  UNL1       -0.0822
     16 C          -3.7039  -19.4593   20.9420 C.ar    1  UNL1        0.0577
     17 C          -4.7400  -20.3144   20.2748 C.ar    1  UNL1        0.0119
     18 C          -6.1578  -20.2940   20.7641 C.ar    1  UNL1        0.0073
     19 C          -6.5395  -19.4184   21.9207 C.ar    1  UNL1        0.0296
     20 C          -5.5034  -18.5634   22.5879 C.ar    1  UNL1        0.0073
     21 C          -4.0856  -18.5838   22.0986 C.ar    1  UNL1        0.0119
@<TRIPOS>BOND
     1    15    16    1
     2    16    17   ar
     3    17    18   ar
     4    18    19   ar
     5    19    14    1
     6    14     1    1
     7     1     2   ar
     8     2     3   ar
     9     3     4   ar
    10     4     5   ar
    11     5     6   ar
    12     6     7    1
    13     7     8    1
    14     8     9    1
    15     9    10    1
    16    10    11    1
    17    11    12    1
    18    19    20   ar
    19    20    21   ar
    20    21    16   ar
    21     6     1   ar
    22    12     7    1
    23    10    13    1
@<TRIPOS>MOLECULE
*****
 21 23 0 0 0
SMALL
GASTEIGER

@<TRIPOS>ATOM
      1 C          -9.9627  -16.7782   21.8719 C.ar    1  UNL1        0.0428
      2 C         -11.2250  -15.9839   22.0324 C.ar    1  UNL1        0.0077
      3 C         -12.5566  -16.6405   21.8188 C.ar    1  UNL1        0.0006
      4 C         -12.6260  -18.0914   21.4447 C.ar    1  UNL1        0.0013
      5 C         -11.3637  -18.8857   21.2842 C.ar    1  UNL1        0.0150
      6 C         -10.0321  -18.2291   21.4978 C.ar    1  UNL1        0.0540
      7 N          -8.7698  -19.0234   21.3373 N.pl3   1  UNL1       -0.3043
      8 C          -8.2058  -19.2670   19.9689 C.3     1  UNL1        0.1079
      9 C          -6.9436  -20.0613   19.8084 C.3     1  UNL1        0.0903
     10 N          -6.2453  -20.6121   21.0164 N.3     1  UNL1       -0.2946
     11 C          -6.8094  -20.3686   22.3848 C.3     1  UNL1        0.0903
     12 C          -8.0717  -19.5742   22.5453 C.3     1  UNL1        0.1079
     13 H          -5.3019  -20.2244   21.0135 H       1  UNL1        0.1233
     14 S          -8.6311  -16.1216   22.0855 S.3     1  UNL1       -0.0857
     15 CL         -6.5316  -15.3367   27.6512 Cl      1  UNL1       -0.0822
     16 C          -7.0565  -15.5329   26.2598 C.ar    1  UNL1        0.0577
     17 C          -6.1873  -15.2171   25.0788 C.ar    1  UNL1        0.0119
     18 C          -6.7122  -15.4133   23.6874 C.ar    1  UNL1        0.0073
     19 C          -8.1062  -15.9253   23.4770 C.ar    1  UNL1        0.0296
     20 C          -8.9754  -16.2411   24.6579 C.ar    1  UNL1        0.0073
     21 C          -8.4506  -16.0449   26.0493 C.ar    1  UNL1        0.0119
@<TRIPOS>BOND
     1    15    16    1
     2    16    17   ar
     3    17    18   ar
     4    18    19   ar
     5    19    14    1
     6    14     1    1
     7     1     2   ar
     8     2     3   ar
     9     3     4   ar
    10     4     5   ar
    11     5     6   ar
    12     6     7    1
    13     7     8    1
    14     8     9    1
    15     9    10    1
    16    10    11    1
    17    11    12    1
    18    19    20   ar
    19    20    21   ar
    20    21    16   ar
    21     6     1   ar
    22    12     7    1
    23    10    13    1
@<TRIPOS>MOLECULE
*****
 21 23 0 0 0
SMALL
GASTEIGER

@<TRIPOS>ATOM
      1 C          -7.3242  -16.0668   24.4302 C.ar    1  UNL1        0.0428
      2 C          -6.1461  -15.4011   25.0775 C.ar    1  UNL1        0.0077
      3 C          -6.1013  -15.2396   26.5681 C.ar    1  UNL1        0.0006
      4 C          -7.2347  -15.7438   27.4114 C.ar    1  UNL1        0.0013
      5 C          -8.4128  -16.4095   26.7642 C.ar    1  UNL1        0.0150
      6 C          -8.4575  -16.5710   25.2735 C.ar    1  UNL1        0.0540
      7 N          -9.6356  -17.2367   24.6263 N.pl3   1  UNL1       -0.3043
      8 C          -9.9935  -18.6472   24.9903 C.3     1  UNL1        0.1079
      9 C         -11.1716  -19.3129   24.3431 C.3     1  UNL1        0.0903
     10 N         -11.9919  -18.5681   23.3318 N.3     1  UNL1       -0.2946
     11 C         -11.6340  -17.1576   22.9678 C.3     1  UNL1        0.0903
     12 C         -10.4558  -16.4919   23.6151 C.3     1  UNL1        0.1079
     13 H         -12.9481  -18.5471   23.6861 H       1  UNL1        0.1233
     14 S          -7.3689  -16.2283   22.9396 S.3     1  UNL1       -0.0857
     15 CL         -5.8806  -21.4781   20.4447 Cl      1  UNL1       -0.0822
     16 C          -6.2527  -20.1656   21.0684 C.ar    1  UNL1        0.0577
     17 C          -5.2850  -19.4653   21.9756 C.ar    1  UNL1        0.0119
     18 C          -5.6571  -18.1528   22.5993 C.ar    1  UNL1        0.0073
     19 C          -6.9968  -17.5407   22.3159 C.ar    1  UNL1        0.0296
     20 C          -7.9645  -18.2411   21.4087 C.ar    1  UNL1        0.0073
     21 C          -7.5924  -19.5536   20.7850 C.ar    1  UNL1        0.0119
@<TRIPOS>BOND
     1    15    16    1
     2    16    17   ar
     3    17    18   ar
     4    18    19   ar
     5    19    14    1
     6    14     1    1
     7     1     2   ar
     8     2     3   ar
     9     3     4   ar
    10     4     5   ar
    11     5     6   ar
    12     6     7    1
    13     7     8    1
    14     8     9    1
    15     9    10    1
    16    10    11    1
    17    11    12    1
    18    19    20   ar
    19    20    21   ar
    20    21    16   ar
    21     6     1   ar
    22    12     7    1
    23    10    13    1
@<TRIPOS>MOLECULE
*****
 21 23 0 0 0
SMALL
GASTEIGER

@<TRIPOS>ATOM
      1 C          -8.2024  -17.8947   21.6487 C.ar    1  UNL1        0.0428
      2 C          -8.3955  -18.9518   20.6021 C.ar    1  UNL1        0.0077
      3 C          -7.3388  -19.9940   20.3849 C.ar    1  UNL1        0.0006
      4 C          -6.0890  -19.9791   21.2142 C.ar    1  UNL1        0.0013
      5 C          -5.8959  -18.9220   22.2608 C.ar    1  UNL1        0.0150
      6 C          -6.9526  -17.8798   22.4780 C.ar    1  UNL1        0.0540
      7 N          -6.7595  -16.8227   23.5246 N.pl3   1  UNL1       -0.3043
      8 C          -7.9133  -16.3985   24.3840 C.3     1  UNL1        0.1079
      9 C          -7.7202  -15.3415   25.4305 C.3     1  UNL1        0.0903
     10 N          -6.3732  -14.7085   25.6177 N.3     1  UNL1       -0.2946
     11 C          -5.2193  -15.1328   24.7583 C.3     1  UNL1        0.0903
     12 C          -5.4125  -16.1899   23.7117 C.3     1  UNL1        0.1079
     13 H          -6.0988  -14.8806   26.5849 H       1  UNL1        0.1233
     14 S          -9.2591  -16.8525   21.8659 S.3     1  UNL1       -0.0857
     15 CL        -14.4664  -18.3513   24.4423 Cl      1  UNL1       -0.0822
     16 C         -13.1645  -17.9766   23.7982 C.ar    1  UNL1        0.0577
     17 C         -13.1203  -16.8736   22.7827 C.ar    1  UNL1        0.0119
     18 C         -11.8185  -16.4989   22.1386 C.ar    1  UNL1        0.0073
     19 C         -10.5609  -17.2272   22.5100 C.ar    1  UNL1        0.0296
     20 C         -10.6051  -18.3302   23.5255 C.ar    1  UNL1        0.0073
     21 C         -11.9070  -18.7049   24.1696 C.ar    1  UNL1        0.0119
@<TRIPOS>BOND
     1    15    16    1
     2    16    17   ar
     3    17    18   ar
     4    18    19   ar
     5    19    14    1
     6    14     1    1
     7     1     2   ar
     8     2     3   ar
     9     3     4   ar
    10     4     5   ar
    11     5     6   ar
    12     6     7    1
    13     7     8    1
    14     8     9    1
    15     9    10    1
    16    10    11    1
    17    11    12    1
    18    19    20   ar
    19    20    21   ar
    20    21    16   ar
    21     6     1   ar
    22    12     7    1
    23    10    13    1
@<TRIPOS>MOLECULE
*****
 21 23 0 0 0
SMALL
GASTEIGER

@<TRIPOS>ATOM
      1 C         -12.4244   -3.8663   19.3306 C.ar    1  UNL1        0.0428
      2 C         -12.8496   -2.4390   19.5091 C.ar    1  UNL1        0.0077
      3 C         -12.1645   -1.3502   18.7377 C.ar    1  UNL1        0.0006
      4 C         -11.0540   -1.6887   17.7878 C.ar    1  UNL1        0.0013
      5 C         -10.6287   -3.1160   17.6093 C.ar    1  UNL1        0.0150
      6 C         -11.3139   -4.2049   18.3807 C.ar    1  UNL1        0.0540
      7 N         -10.8887   -5.6322   18.2022 N.pl3   1  UNL1       -0.3043
      8 C         -11.5603   -6.4917   17.1726 C.3     1  UNL1        0.1079
      9 C         -11.1350   -7.9190   16.9941 C.3     1  UNL1        0.0903
     10 N         -10.0381   -8.4869   17.8452 N.3     1  UNL1       -0.2946
     11 C          -9.3664   -7.6273   18.8748 C.3     1  UNL1        0.0903
     12 C          -9.7918   -6.1999   19.0533 C.3     1  UNL1        0.1079
     13 H          -9.3086   -8.8089   17.2092 H       1  UNL1        0.1233
     14 S         -13.1096   -4.9551   20.1020 S.3     1  UNL1       -0.0857
     15 CL        -18.6756   -6.6353   18.6202 Cl      1  UNL1       -0.0822
     16 C         -17.2841   -6.2153   18.9906 C.ar    1  UNL1        0.0577
     17 C         -17.0455   -4.8662   19.6013 C.ar    1  UNL1        0.0119
     18 C         -15.6539   -4.4461   19.9718 C.ar    1  UNL1        0.0073
     19 C         -14.5011   -5.3752   19.7315 C.ar    1  UNL1        0.0296
     20 C         -14.7397   -6.7242   19.1208 C.ar    1  UNL1        0.0073
     21 C         -16.1312   -7.1443   18.7504 C.ar    1  UNL1        0.0119
@<TRIPOS>BOND
     1    15    16    1
     2    16    17   ar
     3    17    18   ar
     4    18    19   ar
     5    19    14    1
     6    14     1    1
     7     1     2   ar
     8     2     3   ar
     9     3     4   ar
    10     4     5   ar
    11     5     6   ar
    12     6     7    1
    13     7     8    1
    14     8     9    1
    15     9    10    1
    16    10    11    1
    17    11    12    1
    18    19    20   ar
    19    20    21   ar
    20    21    16   ar
    21     6     1   ar
    22    12     7    1
    23    10    13    1
@<TRIPOS>MOLECULE
*****
 21 23 0 0 0
SMALL
GASTEIGER

@<TRIPOS>ATOM
      1 C         -11.8222   -6.4124   17.9838 C.ar    1  UNL1        0.0428
      2 C         -10.9273   -7.6134   17.9007 C.ar    1  UNL1        0.0077
      3 C          -9.5554   -7.5698   18.5055 C.ar    1  UNL1        0.0006
      4 C          -9.0782   -6.3251   19.1934 C.ar    1  UNL1        0.0013
      5 C          -9.9730   -5.1241   19.2765 C.ar    1  UNL1        0.0150
      6 C         -11.3451   -5.1678   18.6716 C.ar    1  UNL1        0.0540
      7 N         -12.2399   -3.9668   18.7547 N.pl3   1  UNL1       -0.3043
      8 C         -13.1803   -3.8109   19.9128 C.3     1  UNL1        0.1079
      9 C         -14.0751   -2.6099   19.9958 C.3     1  UNL1        0.0903
     10 N         -14.0295   -1.5647   18.9208 N.3     1  UNL1       -0.2946
     11 C         -13.0890   -1.7207   17.7627 C.3     1  UNL1        0.0903
     12 C         -12.1942   -2.9217   17.6797 C.3     1  UNL1        0.1079
     13 H         -13.7918   -0.6837   19.3765 H       1  UNL1        0.1233
     14 S         -13.1941   -6.4561   17.3790 S.3     1  UNL1       -0.0857
     15 CL        -17.3731  -10.0945   19.6808 Cl      1  UNL1       -0.0822
     16 C         -16.3283   -9.1849   19.1053 C.ar    1  UNL1        0.0577
     17 C         -15.4321   -9.6730   18.0061 C.ar    1  UNL1        0.0119
     18 C         -14.3873   -8.7634   17.4306 C.ar    1  UNL1        0.0073
     19 C         -14.2389   -7.3657   17.9544 C.ar    1  UNL1        0.0296
     20 C         -15.1351   -6.8776   19.0537 C.ar    1  UNL1        0.0073
     21 C         -16.1799   -7.7872   19.6291 C.ar    1  UNL1        0.0119
@<TRIPOS>BOND
     1    15    16    1
     2    16    17   ar
     3    17    18   ar
     4    18    19   ar
     5    19    14    1
     6    14     1    1
     7     1     2   ar
     8     2     3   ar
     9     3     4   ar
    10     4     5   ar
    11     5     6   ar
    12     6     7    1
    13     7     8    1
    14     8     9    1
    15     9    10    1
    16    10    11    1
    17    11    12    1
    18    19    20   ar
    19    20    21   ar
    20    21    16   ar
    21     6     1   ar
    22    12     7    1
    23    10    13    1
@<TRIPOS>MOLECULE
*****
 21 23 0 0 0
SMALL
GASTEIGER

@<TRIPOS>ATOM
      1 C          -8.9610  -18.3135   21.3554 C.ar    1  UNL1        0.0428
      2 C          -9.9559  -18.8772   20.3845 C.ar    1  UNL1        0.0077
      3 C          -9.4884  -19.7268   19.2401 C.ar    1  UNL1        0.0006
      4 C          -8.0262  -20.0127   19.0665 C.ar    1  UNL1        0.0013
      5 C          -7.0314  -19.4491   20.0374 C.ar    1  UNL1        0.0150
      6 C          -7.4988  -18.5994   21.1819 C.ar    1  UNL1        0.0540
      7 N          -6.5040  -18.0358   22.1527 N.pl3   1  UNL1       -0.3043
      8 C          -5.1624  -18.6869   22.3148 C.3     1  UNL1        0.1079
      9 C          -4.1676  -18.1232   23.2857 C.3     1  UNL1        0.0903
     10 N          -4.5143  -16.9084   24.0945 N.3     1  UNL1       -0.2946
     11 C          -5.8559  -16.2573   23.9324 C.3     1  UNL1        0.0903
     12 C          -6.8507  -16.8211   22.9615 C.3     1  UNL1        0.1079
     13 H          -3.8145  -16.1994   23.8756 H       1  UNL1        0.1233
     14 S          -9.4285  -17.4639   22.4998 S.3     1  UNL1       -0.0857
     15 CL        -14.7836  -18.4876   25.0046 Cl      1  UNL1       -0.0822
     16 C         -13.4448  -18.2317   24.3784 C.ar    1  UNL1        0.0577
     17 C         -13.3335  -17.3201   23.1924 C.ar    1  UNL1        0.0119
     18 C         -11.9947  -17.0642   22.5662 C.ar    1  UNL1        0.0073
     19 C         -10.7672  -17.7198   23.1260 C.ar    1  UNL1        0.0296
     20 C         -10.8786  -18.6314   24.3120 C.ar    1  UNL1        0.0073
     21 C         -12.2174  -18.8873   24.9382 C.ar    1  UNL1        0.0119
@<TRIPOS>BOND
     1    15    16    1
     2    16    17   ar
     3    17    18   ar
     4    18    19   ar
     5    19    14    1
     6    14     1    1
     7     1     2   ar
     8     2     3   ar
     9     3     4   ar
    10     4     5   ar
    11     5     6   ar
    12     6     7    1
    13     7     8    1
    14     8     9    1
    15     9    10    1
    16    10    11    1
    17    11    12    1
    18    19    20   ar
    19    20    21   ar
    20    21    16   ar
    21     6     1   ar
    22    12     7    1
    23    10    13    1
@<TRIPOS>MOLECULE
*****
 21 23 0 0 0
SMALL
GASTEIGER

@<TRIPOS>ATOM
      1 C           3.0315   -0.1912   18.3822 C.ar    1  UNL1        0.0428
      2 C           2.0655    0.9382   18.1780 C.ar    1  UNL1        0.0077
      3 C           0.9043    1.1099   19.1119 C.ar    1  UNL1        0.0006
      4 C           0.7090    0.1524   20.2499 C.ar    1  UNL1        0.0013
      5 C           1.6749   -0.9769   20.4540 C.ar    1  UNL1        0.0150
      6 C           2.8362   -1.1487   19.5202 C.ar    1  UNL1        0.0540
      7 N           3.8021   -2.2780   19.7243 N.pl3   1  UNL1       -0.3043
      8 C           5.0087   -2.0848   20.5942 C.3     1  UNL1        0.1079
      9 C           5.9746   -3.2141   20.7983 C.3     1  UNL1        0.0903
     10 N           5.7339   -4.5366   20.1326 N.3     1  UNL1       -0.2946
     11 C           4.5272   -4.7297   19.2627 C.3     1  UNL1        0.0903
     12 C           3.5613   -3.6004   19.0586 C.3     1  UNL1        0.1079
     13 H           5.6764   -5.2338   20.8749 H       1  UNL1        0.1233
     14 S           4.1926   -0.3629   17.4483 S.3     1  UNL1       -0.0857
     15 CL          9.0720    3.0739   18.0645 Cl      1  UNL1       -0.0822
     16 C           7.8522    2.2147   17.9105 C.ar    1  UNL1        0.0577
     17 C           6.8981    2.0543   19.0567 C.ar    1  UNL1        0.0119
     18 C           5.6783    1.1951   18.9027 C.ar    1  UNL1        0.0073
     19 C           5.4125    0.4963   17.6023 C.ar    1  UNL1        0.0296
     20 C           6.3665    0.6566   16.4561 C.ar    1  UNL1        0.0073
     21 C           7.5864    1.5158   16.6101 C.ar    1  UNL1        0.0119
@<TRIPOS>BOND
     1    15    16    1
     2    16    17   ar
     3    17    18   ar
     4    18    19   ar
     5    19    14    1
     6    14     1    1
     7     1     2   ar
     8     2     3   ar
     9     3     4   ar
    10     4     5   ar
    11     5     6   ar
    12     6     7    1
    13     7     8    1
    14     8     9    1
    15     9    10    1
    16    10    11    1
    17    11    12    1
    18    19    20   ar
    19    20    21   ar
    20    21    16   ar
    21     6     1   ar
    22    12     7    1
    23    10    13    1
@<TRIPOS>MOLECULE
*****
 21 23 0 0 0
SMALL
GASTEIGER

@<TRIPOS>ATOM
      1 C         -15.7771   -7.7031   17.9900 C.ar    1  UNL1        0.0428
      2 C         -15.7864   -9.2017   18.0556 C.ar    1  UNL1        0.0077
      3 C         -16.7451   -9.9066   18.9688 C.ar    1  UNL1        0.0006
      4 C         -17.6947   -9.1129   19.8164 C.ar    1  UNL1        0.0013
      5 C         -17.6855   -7.6144   19.7508 C.ar    1  UNL1        0.0150
      6 C         -16.7267   -6.9095   18.8376 C.ar    1  UNL1        0.0540
      7 N         -16.7175   -5.4110   18.7720 N.pl3   1  UNL1       -0.3043
      8 C         -17.4662   -4.7033   17.6818 C.3     1  UNL1        0.1079
      9 C         -17.4570   -3.2048   17.6162 C.3     1  UNL1        0.0903
     10 N         -16.6990   -2.4139   18.6409 N.3     1  UNL1       -0.2946
     11 C         -15.9502   -3.1215   19.7311 C.3     1  UNL1        0.0903
     12 C         -15.9595   -4.6201   19.7967 C.3     1  UNL1        0.1079
     13 H         -17.3738   -1.8003   19.0976 H       1  UNL1        0.1233
     14 S         -14.8184   -6.9983   17.0768 S.3     1  UNL1       -0.0857
     15 CL         -9.6392   -4.8683   19.2307 Cl      1  UNL1       -0.0822
     16 C         -10.9340   -5.4008   18.6922 C.ar    1  UNL1        0.0577
     17 C         -11.8782   -4.4866   17.9693 C.ar    1  UNL1        0.0119
     18 C         -13.1730   -5.0191   17.4309 C.ar    1  UNL1        0.0073
     19 C         -13.5236   -6.4658   17.6153 C.ar    1  UNL1        0.0296
     20 C         -12.5793   -7.3800   18.3382 C.ar    1  UNL1        0.0073
     21 C         -11.2846   -6.8475   18.8766 C.ar    1  UNL1        0.0119
@<TRIPOS>BOND
     1    15    16    1
     2    16    17   ar
     3    17    18   ar
     4    18    19   ar
     5    19    14    1
     6    14     1    1
     7     1     2   ar
     8     2     3   ar
     9     3     4   ar
    10     4     5   ar
    11     5     6   ar
    12     6     7    1
    13     7     8    1
    14     8     9    1
    15     9    10    1
    16    10    11    1
    17    11    12    1
    18    19    20   ar
    19    20    21   ar
    20    21    16   ar
    21     6     1   ar
    22    12     7    1
    23    10    13    1
