@<TRIPOS>MOLECULE
*****
 25 28 0 0 0
SMALL
GASTEIGER

@<TRIPOS>ATOM
      1 N         -11.9617  -16.1994   19.3026 N.pl3   1  UNL1       -0.3128
      2 C         -11.3699  -17.1156   20.3323 C.ar    1  UNL1        0.2859
      3 N          -9.9344  -17.5435   20.4109 N.ar    1  UNL1       -0.1948
      4 C          -9.7869  -18.4571   21.5914 C.ar    1  UNL1        0.1245
      5 C          -8.6022  -19.1822   22.1576 C.ar    1  UNL1        0.0749
      6 C          -8.7618  -20.0440   23.3750 C.ar    1  UNL1        0.0176
      7 C         -10.1063  -20.1807   24.0260 C.ar    1  UNL1        0.0610
      8 CL        -10.2659  -21.0425   25.2433 Cl      1  UNL1       -0.0821
      9 C         -11.2910  -19.4556   23.4597 C.ar    1  UNL1        0.0505
     10 C         -11.1314  -18.5938   22.2425 C.ar    1  UNL1        0.1670
     11 O         -12.1097  -17.7647   21.4643 O.2     1  UNL1       -0.4240
     12 H         -11.3918  -15.8210   18.5947 H       1  UNL1        0.1466
     13 H         -12.9201  -15.9764   19.3348 H       1  UNL1        0.1466
     14 C          -7.2578  -19.0454   21.5066 C.2     1  UNL1        0.2474
     15 O          -6.9739  -17.8767   20.6103 O.2     1  UNL1       -0.2701
     16 N          -6.1972  -20.0775   21.7519 N.am    1  UNL1       -0.3011
     17 H          -6.2863  -20.8761   22.3206 H       1  UNL1        0.1497
     18 C          -4.0195  -19.3628   20.3690 C.3     1  UNL1        0.0878
     19 C          -3.2608  -18.5709   21.1670 C.3     1  UNL1        0.0919
     20 N          -2.7670  -18.0865   21.6136 N.3     1  UNL1       -0.2713
     21 C          -2.3106  -18.4045   20.2206 C.3     1  UNL1        0.0722
     22 C          -3.1497  -19.2803   19.3380 C.3     1  UNL1        0.0191
     23 C          -4.4452  -19.8379   19.8484 C.3     1  UNL1        0.0221
     24 C          -4.9017  -19.5198   21.2415 C.3     1  UNL1        0.0191
     25 C          -4.0626  -18.6441   22.1240 C.3     1  UNL1        0.0722
@<TRIPOS>BOND
     1     1     2    1
     2     2     3   ar
     3     3     4   ar
     4     4     5   ar
     5     5    14    1
     6    14    15    2
     7    14    16   am
     8    18    16    1
     9    18    19    1
    10    19    20    1
    11    20    21    1
    12    21    22    1
    13    22    23    1
    14    23    24    1
    15    24    25    1
    16     5     6   ar
    17     6     7   ar
    18     7     8    1
    19     7     9   ar
    20     9    10   ar
    21    10    11   ar
    22    11     2   ar
    23    10     4   ar
    24    23    18    1
    25    25    20    1
    26     1    12    1
    27     1    13    1
    28    16    17    1
@<TRIPOS>MOLECULE
*****
 25 28 0 0 0
SMALL
GASTEIGER

@<TRIPOS>ATOM
      1 N          -6.2084  -21.6118   20.1543 N.pl3   1  UNL1       -0.3128
      2 C          -5.1591  -20.5693   20.4040 C.ar    1  UNL1        0.2859
      3 N          -5.1569  -19.5710   21.5236 N.ar    1  UNL1       -0.1948
      4 C          -3.9243  -18.7269   21.3896 C.ar    1  UNL1        0.1245
      5 C          -3.3954  -17.5858   22.2070 C.ar    1  UNL1        0.0749
      6 C          -2.1069  -16.9213   21.8222 C.ar    1  UNL1        0.0176
      7 C          -1.3472  -17.3979   20.6198 C.ar    1  UNL1        0.0610
      8 CL         -0.0586  -16.7335   20.2349 Cl      1  UNL1       -0.0821
      9 C          -1.8760  -18.5390   19.8023 C.ar    1  UNL1        0.0505
     10 C          -3.1646  -19.2035   20.1872 C.ar    1  UNL1        0.1670
     11 O          -3.9277  -20.3422   19.5781 O.2     1  UNL1       -0.4240
     12 H          -6.9845  -21.6830   20.7558 H       1  UNL1        0.1466
     13 H          -6.1209  -22.2248   19.3889 H       1  UNL1        0.1466
     14 C          -4.1551  -17.1092   23.4094 C.2     1  UNL1        0.2474
     15 O          -4.0683  -17.8677   24.7006 O.2     1  UNL1       -0.2701
     16 N          -5.0017  -15.8741   23.3206 N.am    1  UNL1       -0.3011
     17 H          -5.1226  -15.3105   22.5224 H       1  UNL1        0.1497
     18 C          -6.1253  -15.4738   25.7171 C.3     1  UNL1        0.0878
     19 C          -7.4585  -15.6901   25.5932 C.3     1  UNL1        0.0919
     20 N          -8.2726  -15.8107   25.5672 N.3     1  UNL1       -0.2713
     21 C          -7.6964  -15.4201   26.8958 C.3     1  UNL1        0.0722
     22 C          -6.2219  -15.1809   27.0328 C.3     1  UNL1        0.0191
     23 C          -5.3237  -15.3322   25.8411 C.3     1  UNL1        0.0221
     24 C          -5.8999  -15.7228   24.5123 C.3     1  UNL1        0.0191
     25 C          -7.3744  -15.9620   24.3754 C.3     1  UNL1        0.0722
@<TRIPOS>BOND
     1     1     2    1
     2     2     3   ar
     3     3     4   ar
     4     4     5   ar
     5     5    14    1
     6    14    15    2
     7    14    16   am
     8    18    16    1
     9    18    19    1
    10    19    20    1
    11    20    21    1
    12    21    22    1
    13    22    23    1
    14    23    24    1
    15    24    25    1
    16     5     6   ar
    17     6     7   ar
    18     7     8    1
    19     7     9   ar
    20     9    10   ar
    21    10    11   ar
    22    11     2   ar
    23    10     4   ar
    24    23    18    1
    25    25    20    1
    26     1    12    1
    27     1    13    1
    28    16    17    1
@<TRIPOS>MOLECULE
*****
 25 28 0 0 0
SMALL
GASTEIGER

@<TRIPOS>ATOM
      1 N         -11.2719  -15.2138   18.5686 N.pl3   1  UNL1       -0.3128
      2 C         -11.3672  -16.0017   19.8414 C.ar    1  UNL1        0.2859
      3 N         -10.2616  -16.7957   20.4717 N.ar    1  UNL1       -0.1948
      4 C         -10.7959  -17.4187   21.7273 C.ar    1  UNL1        0.1245
      5 C         -10.1605  -18.3055   22.7567 C.ar    1  UNL1        0.0749
      6 C         -10.9609  -18.7834   23.9319 C.ar    1  UNL1        0.0176
      7 C         -12.3966  -18.3744   24.0776 C.ar    1  UNL1        0.0610
      8 CL        -13.1970  -18.8522   25.2528 Cl      1  UNL1       -0.0821
      9 C         -13.0321  -17.4875   23.0481 C.ar    1  UNL1        0.0505
     10 C         -12.2317  -17.0097   21.8730 C.ar    1  UNL1        0.1670
     11 O         -12.5847  -16.1340   20.7075 O.2     1  UNL1       -0.4240
     12 H         -10.4246  -15.1877   18.0680 H       1  UNL1        0.1466
     13 H         -12.0568  -14.7228   18.2337 H       1  UNL1        0.1466
     14 C          -8.7247  -18.7145   22.6110 C.2     1  UNL1        0.2474
     15 O          -8.2874  -20.0833   23.0410 O.2     1  UNL1       -0.2701
     16 N          -7.7261  -17.7545   22.0352 N.am    1  UNL1       -0.3011
     17 H          -7.9141  -16.8390   21.7257 H       1  UNL1        0.1497
     18 C          -5.3424  -18.9719   21.9986 C.3     1  UNL1        0.0878
     19 C          -5.2919  -19.7555   20.8926 C.3     1  UNL1        0.0919
     20 N          -5.2148  -20.2450   20.2351 N.3     1  UNL1       -0.2713
     21 C          -4.0428  -20.1904   21.1696 C.3     1  UNL1        0.0722
     22 C          -4.0985  -19.3238   22.3927 C.3     1  UNL1        0.0191
     23 C          -5.3263  -18.5118   22.6813 C.3     1  UNL1        0.0221
     24 C          -6.4983  -18.5665   21.7467 C.3     1  UNL1        0.0191
     25 C          -6.4426  -19.4331   20.5236 C.3     1  UNL1        0.0722
@<TRIPOS>BOND
     1     1     2    1
     2     2     3   ar
     3     3     4   ar
     4     4     5   ar
     5     5    14    1
     6    14    15    2
     7    14    16   am
     8    18    16    1
     9    18    19    1
    10    19    20    1
    11    20    21    1
    12    21    22    1
    13    22    23    1
    14    23    24    1
    15    24    25    1
    16     5     6   ar
    17     6     7   ar
    18     7     8    1
    19     7     9   ar
    20     9    10   ar
    21    10    11   ar
    22    11     2   ar
    23    10     4   ar
    24    23    18    1
    25    25    20    1
    26     1    12    1
    27     1    13    1
    28    16    17    1
@<TRIPOS>MOLECULE
*****
 25 28 0 0 0
SMALL
GASTEIGER

@<TRIPOS>ATOM
      1 N          -7.9068  -14.9743   25.9508 N.pl3   1  UNL1       -0.3128
      2 C          -8.2327  -15.9654   24.8730 C.ar    1  UNL1        0.2859
      3 N          -7.2626  -16.5488   23.8889 N.ar    1  UNL1       -0.1948
      4 C          -8.0163  -17.4910   22.9978 C.ar    1  UNL1        0.1245
      5 C          -7.5806  -18.3497   21.8478 C.ar    1  UNL1        0.0749
      6 C          -8.5809  -19.2075   21.1310 C.ar    1  UNL1        0.0176
      7 C         -10.0169  -19.2065   21.5644 C.ar    1  UNL1        0.0610
      8 CL        -11.0172  -20.0642   20.8477 Cl      1  UNL1       -0.0821
      9 C         -10.4526  -18.3477   22.7145 C.ar    1  UNL1        0.0505
     10 C          -9.4523  -17.4899   23.4311 C.ar    1  UNL1        0.1670
     11 O          -9.5861  -16.5471   24.5901 O.2     1  UNL1       -0.4240
     12 H          -6.9836  -14.6497   26.0581 H       1  UNL1        0.1466
     13 H          -8.6160  -14.6485   26.5508 H       1  UNL1        0.1466
     14 C          -6.1445  -18.3508   21.4144 C.2     1  UNL1        0.2474
     15 O          -5.0954  -17.7374   22.2936 O.2     1  UNL1       -0.2701
     16 N          -5.7577  -18.9652   20.1018 N.am    1  UNL1       -0.3011
     17 H          -6.3695  -19.3901   19.4581 H       1  UNL1        0.1497
     18 C          -3.1088  -18.7014   19.8198 C.3     1  UNL1        0.0878
     19 C          -2.5105  -19.5342   20.7076 C.3     1  UNL1        0.0919
     20 N          -2.1028  -20.0236   21.2293 N.3     1  UNL1       -0.2713
     21 C          -1.2677  -19.1713   20.3204 C.3     1  UNL1        0.0722
     22 C          -1.9293  -18.2502   19.3385 C.3     1  UNL1        0.0191
     23 C          -3.4260  -18.1815   19.2656 C.3     1  UNL1        0.0221
     24 C          -4.2610  -19.0339   20.1746 C.3     1  UNL1        0.0191
     25 C          -3.5994  -19.9549   21.1565 C.3     1  UNL1        0.0722
@<TRIPOS>BOND
     1     1     2    1
     2     2     3   ar
     3     3     4   ar
     4     4     5   ar
     5     5    14    1
     6    14    15    2
     7    14    16   am
     8    18    16    1
     9    18    19    1
    10    19    20    1
    11    20    21    1
    12    21    22    1
    13    22    23    1
    14    23    24    1
    15    24    25    1
    16     5     6   ar
    17     6     7   ar
    18     7     8    1
    19     7     9   ar
    20     9    10   ar
    21    10    11   ar
    22    11     2   ar
    23    10     4   ar
    24    23    18    1
    25    25    20    1
    26     1    12    1
    27     1    13    1
    28    16    17    1
@<TRIPOS>MOLECULE
*****
 25 28 0 0 0
SMALL
GASTEIGER

@<TRIPOS>ATOM
      1 N         -10.2209  -17.0768   20.8242 N.pl3   1  UNL1       -0.3128
      2 C          -9.3136  -16.7497   21.9730 C.ar    1  UNL1        0.2859
      3 N          -7.8174  -16.8559   21.9727 N.ar    1  UNL1       -0.1948
      4 C          -7.3222  -16.4307   23.3233 C.ar    1  UNL1        0.1245
      5 C          -5.9413  -16.3319   23.9006 C.ar    1  UNL1        0.0749
      6 C          -5.7505  -15.8641   25.3130 C.ar    1  UNL1        0.0176
      7 C          -6.9407  -15.4951   26.1480 C.ar    1  UNL1        0.0610
      8 CL         -6.7500  -15.0273   27.5604 Cl      1  UNL1       -0.0821
      9 C          -8.3217  -15.5939   25.5706 C.ar    1  UNL1        0.0505
     10 C          -8.5124  -16.0617   24.1583 C.ar    1  UNL1        0.1670
     11 O          -9.7431  -16.2588   23.3238 O.2     1  UNL1       -0.4240
     12 H          -9.8422  -17.3939   19.9726 H       1  UNL1        0.1466
     13 H         -11.1952  -16.9744   20.9219 H       1  UNL1        0.1466
     14 C          -4.7511  -16.7010   23.0656 C.2     1  UNL1        0.2474
     15 O          -3.7690  -15.6455   22.6516 O.2     1  UNL1       -0.2701
     16 N          -4.5429  -18.1256   22.6446 N.am    1  UNL1       -0.3011
     17 H          -5.1280  -18.8863   22.8645 H       1  UNL1        0.1497
     18 C          -2.2988  -18.2329   21.1892 C.3     1  UNL1        0.0878
     19 C          -2.6433  -18.5462   19.9152 C.3     1  UNL1        0.0919
     20 N          -2.8034  -18.7343   19.1298 N.3     1  UNL1       -0.2713
     21 C          -1.3623  -18.5191   19.4857 C.3     1  UNL1        0.0722
     22 C          -0.9813  -18.1726   20.8946 C.3     1  UNL1        0.0191
     23 C          -2.0415  -18.0415   21.9475 C.3     1  UNL1        0.0221
     24 C          -3.4827  -18.2568   21.5916 C.3     1  UNL1        0.0191
     25 C          -3.8637  -18.6032   20.1828 C.3     1  UNL1        0.0722
@<TRIPOS>BOND
     1     1     2    1
     2     2     3   ar
     3     3     4   ar
     4     4     5   ar
     5     5    14    1
     6    14    15    2
     7    14    16   am
     8    18    16    1
     9    18    19    1
    10    19    20    1
    11    20    21    1
    12    21    22    1
    13    22    23    1
    14    23    24    1
    15    24    25    1
    16     5     6   ar
    17     6     7   ar
    18     7     8    1
    19     7     9   ar
    20     9    10   ar
    21    10    11   ar
    22    11     2   ar
    23    10     4   ar
    24    23    18    1
    25    25    20    1
    26     1    12    1
    27     1    13    1
    28    16    17    1
@<TRIPOS>MOLECULE
*****
 25 28 0 0 0
SMALL
GASTEIGER

@<TRIPOS>ATOM
      1 N          -5.0563  -15.1581   25.4092 N.pl3   1  UNL1       -0.3128
      2 C          -5.1668  -16.2210   24.3565 C.ar    1  UNL1        0.2859
      3 N          -6.4412  -16.7537   23.7717 N.ar    1  UNL1       -0.1948
      4 C          -6.0843  -17.7997   22.7576 C.ar    1  UNL1        0.1245
      5 C          -6.9275  -18.6632   21.8670 C.ar    1  UNL1        0.0749
      6 C          -6.2757  -19.6406   20.9343 C.ar    1  UNL1        0.0176
      7 C          -4.7806  -19.7544   20.8923 C.ar    1  UNL1        0.0610
      8 CL         -4.1287  -20.7317   19.9596 Cl      1  UNL1       -0.0821
      9 C          -3.9374  -18.8908   21.7829 C.ar    1  UNL1        0.0505
     10 C          -4.5892  -17.9135   22.7156 C.ar    1  UNL1        0.1670
     11 O          -4.0222  -16.9378   23.7038 O.2     1  UNL1       -0.4240
     12 H          -5.8698  -14.7447   25.7785 H       1  UNL1        0.1466
     13 H          -4.1702  -14.8740   25.7308 H       1  UNL1        0.1466
     14 C          -8.4226  -18.5494   21.9090 C.2     1  UNL1        0.2474
     15 O          -9.2722  -19.7792   21.7838 O.2     1  UNL1       -0.2701
     16 N          -9.0681  -17.2057   22.0762 N.am    1  UNL1       -0.3011
     17 H          -8.5993  -16.3447   22.1662 H       1  UNL1        0.1497
     18 C         -11.7209  -17.5640   22.0863 C.3     1  UNL1        0.0878
     19 C         -12.0860  -17.9368   23.3382 C.3     1  UNL1        0.0919
     20 N         -12.3554  -18.1654   24.0819 N.3     1  UNL1       -0.2713
     21 C         -13.3934  -18.0267   23.0080 C.3     1  UNL1        0.0722
     22 C         -12.9896  -17.6143   21.6234 C.3     1  UNL1        0.0191
     23 C         -11.5479  -17.3406   21.3128 C.3     1  UNL1        0.0221
     24 C         -10.5099  -17.4794   22.3868 C.3     1  UNL1        0.0191
     25 C         -10.9136  -17.8917   23.7713 C.3     1  UNL1        0.0722
@<TRIPOS>BOND
     1     1     2    1
     2     2     3   ar
     3     3     4   ar
     4     4     5   ar
     5     5    14    1
     6    14    15    2
     7    14    16   am
     8    18    16    1
     9    18    19    1
    10    19    20    1
    11    20    21    1
    12    21    22    1
    13    22    23    1
    14    23    24    1
    15    24    25    1
    16     5     6   ar
    17     6     7   ar
    18     7     8    1
    19     7     9   ar
    20     9    10   ar
    21    10    11   ar
    22    11     2   ar
    23    10     4   ar
    24    23    18    1
    25    25    20    1
    26     1    12    1
    27     1    13    1
    28    16    17    1
@<TRIPOS>MOLECULE
*****
 25 28 0 0 0
SMALL
GASTEIGER

@<TRIPOS>ATOM
      1 N           0.2562  -16.9708   20.1076 N.pl3   1  UNL1       -0.3128
      2 C          -1.0341  -17.7082   20.3109 C.ar    1  UNL1        0.2859
      3 N          -2.0376  -17.4468   21.3947 N.ar    1  UNL1       -0.1948
      4 C          -3.1712  -18.4134   21.2198 C.ar    1  UNL1        0.1245
      5 C          -4.4401  -18.6225   21.9919 C.ar    1  UNL1        0.0749
      6 C          -5.4062  -19.6906   21.5721 C.ar    1  UNL1        0.0176
      7 C          -5.1033  -20.5494   20.3802 C.ar    1  UNL1        0.0610
      8 CL         -6.0692  -21.6174   19.9603 Cl      1  UNL1       -0.0821
      9 C          -3.8343  -20.3402   19.6081 C.ar    1  UNL1        0.0505
     10 C          -2.8683  -19.2723   20.0279 C.ar    1  UNL1        0.1670
     11 O          -1.5475  -18.8364   19.4662 O.2     1  UNL1       -0.4240
     12 H           0.5075  -16.2407   20.7183 H       1  UNL1        0.1466
     13 H           0.8519  -17.2170   19.3634 H       1  UNL1        0.1466
     14 C          -4.7431  -17.7637   23.1838 C.2     1  UNL1        0.2474
     15 O          -3.9970  -17.9730   24.4681 O.2     1  UNL1       -0.2701
     16 N          -5.7921  -16.6955   23.0913 N.am    1  UNL1       -0.3011
     17 H          -6.3331  -16.4818   22.2971 H       1  UNL1        0.1497
     18 C          -5.9323  -15.4734   25.4688 C.3     1  UNL1        0.0878
     19 C          -7.2068  -15.5842   25.9195 C.3     1  UNL1        0.0919
     20 N          -7.9665  -15.6258   26.2342 N.3     1  UNL1       -0.2713
     21 C          -6.9395  -14.9071   27.0581 C.3     1  UNL1        0.0722
     22 C          -5.5300  -14.7846   26.5597 C.3     1  UNL1        0.0191
     23 C          -5.1475  -15.3807   25.2375 C.3     1  UNL1        0.0221
     24 C          -6.1746  -16.0994   24.4136 C.3     1  UNL1        0.0191
     25 C          -7.5840  -16.2219   24.9120 C.3     1  UNL1        0.0722
@<TRIPOS>BOND
     1     1     2    1
     2     2     3   ar
     3     3     4   ar
     4     4     5   ar
     5     5    14    1
     6    14    15    2
     7    14    16   am
     8    18    16    1
     9    18    19    1
    10    19    20    1
    11    20    21    1
    12    21    22    1
    13    22    23    1
    14    23    24    1
    15    24    25    1
    16     5     6   ar
    17     6     7   ar
    18     7     8    1
    19     7     9   ar
    20     9    10   ar
    21    10    11   ar
    22    11     2   ar
    23    10     4   ar
    24    23    18    1
    25    25    20    1
    26     1    12    1
    27     1    13    1
    28    16    17    1
@<TRIPOS>MOLECULE
*****
 25 28 0 0 0
SMALL
GASTEIGER

@<TRIPOS>ATOM
      1 N          -6.6865  -14.7564   27.0612 N.pl3   1  UNL1       -0.3128
      2 C          -7.3488  -15.4198   25.8901 C.ar    1  UNL1        0.2859
      3 N          -6.6561  -16.1905   24.8056 N.ar    1  UNL1       -0.1948
      4 C          -7.6992  -16.6760   23.8432 C.ar    1  UNL1        0.1245
      5 C          -7.6040  -17.4859   22.5842 C.ar    1  UNL1        0.0749
      6 C          -8.8463  -17.8251   21.8149 C.ar    1  UNL1        0.0176
      7 C         -10.1837  -17.3544   22.3046 C.ar    1  UNL1        0.0610
      8 CL        -11.4259  -17.6936   21.5354 Cl      1  UNL1       -0.0821
      9 C         -10.2789  -16.5446   23.5637 C.ar    1  UNL1        0.0505
     10 C          -9.0366  -16.2054   24.3329 C.ar    1  UNL1        0.1670
     11 O          -8.8200  -15.4290   25.5980 O.2     1  UNL1       -0.4240
     12 H          -5.7090  -14.8062   27.1671 H       1  UNL1        0.1466
     13 H          -7.2294  -14.2712   27.7238 H       1  UNL1        0.1466
     14 C          -6.2666  -17.9565   22.0945 C.2     1  UNL1        0.2474
     15 O          -6.1392  -18.5636   20.7288 O.2     1  UNL1       -0.2701
     16 N          -5.0567  -17.8201   22.9706 N.am    1  UNL1       -0.3011
     17 H          -5.0379  -17.4372   23.8774 H       1  UNL1        0.1497
     18 C          -2.9574  -18.8021   21.6311 C.3     1  UNL1        0.0878
     19 C          -2.2156  -17.7544   21.1933 C.3     1  UNL1        0.0919
     20 N          -1.7335  -17.1516   20.9067 N.3     1  UNL1       -0.2713
     21 C          -1.3024  -18.5553   20.6011 C.3     1  UNL1        0.0722
     22 C          -2.1227  -19.7141   21.0852 C.3     1  UNL1        0.0191
     23 C          -3.3741  -19.4690   21.8751 C.3     1  UNL1        0.0221
     24 C          -3.8052  -18.0652   22.1807 C.3     1  UNL1        0.0191
     25 C          -2.9849  -16.9065   21.6965 C.3     1  UNL1        0.0722
@<TRIPOS>BOND
     1     1     2    1
     2     2     3   ar
     3     3     4   ar
     4     4     5   ar
     5     5    14    1
     6    14    15    2
     7    14    16   am
     8    18    16    1
     9    18    19    1
    10    19    20    1
    11    20    21    1
    12    21    22    1
    13    22    23    1
    14    23    24    1
    15    24    25    1
    16     5     6   ar
    17     6     7   ar
    18     7     8    1
    19     7     9   ar
    20     9    10   ar
    21    10    11   ar
    22    11     2   ar
    23    10     4   ar
    24    23    18    1
    25    25    20    1
    26     1    12    1
    27     1    13    1
    28    16    17    1
@<TRIPOS>MOLECULE
*****
 25 28 0 0 0
SMALL
GASTEIGER

@<TRIPOS>ATOM
      1 N         -11.2625  -16.5521   22.4726 N.pl3   1  UNL1       -0.3128
      2 C         -10.5757  -17.5150   21.5500 C.ar    1  UNL1        0.2859
      3 N          -9.0994  -17.7718   21.4834 N.ar    1  UNL1       -0.1948
      4 C          -8.8560  -18.8056   20.4242 C.ar    1  UNL1        0.1245
      5 C          -7.5983  -19.4484   19.9192 C.ar    1  UNL1        0.0749
      6 C          -7.6666  -20.4734   18.8261 C.ar    1  UNL1        0.0176
      7 C          -8.9925  -20.8556   18.2380 C.ar    1  UNL1        0.0610
      8 CL         -9.0608  -21.8805   17.1450 Cl      1  UNL1       -0.0821
      9 C         -10.2502  -20.2127   18.7431 C.ar    1  UNL1        0.0505
     10 C         -10.1819  -19.1878   19.8361 C.ar    1  UNL1        0.1670
     11 O         -11.2448  -18.3901   20.5319 O.2     1  UNL1       -0.4240
     12 H         -10.7341  -16.0189   23.1097 H       1  UNL1        0.1466
     13 H         -12.2415  -16.4533   22.4412 H       1  UNL1        0.1466
     14 C          -6.2724  -19.0663   20.5073 C.2     1  UNL1        0.2474
     15 O          -5.2419  -18.3866   19.6552 O.2     1  UNL1       -0.2701
     16 N          -5.9770  -19.3638   21.9476 N.am    1  UNL1       -0.3011
     17 H          -6.5847  -19.8041   22.5849 H       1  UNL1        0.1497
     18 C          -3.5044  -18.4857   22.4777 C.3     1  UNL1        0.0878
     19 C          -2.6263  -19.3210   21.8687 C.3     1  UNL1        0.0919
     20 N          -2.0559  -19.7997   21.5175 N.3     1  UNL1       -0.2713
     21 C          -1.5519  -18.6319   22.3127 C.3     1  UNL1        0.0722
     22 C          -2.5230  -17.7081   22.9863 C.3     1  UNL1        0.0191
     23 C          -3.9980  -17.9521   22.8645 C.3     1  UNL1        0.0221
     24 C          -4.5019  -19.1199   22.0693 C.3     1  UNL1        0.0191
     25 C          -3.5309  -20.0436   21.3958 C.3     1  UNL1        0.0722
@<TRIPOS>BOND
     1     1     2    1
     2     2     3   ar
     3     3     4   ar
     4     4     5   ar
     5     5    14    1
     6    14    15    2
     7    14    16   am
     8    18    16    1
     9    18    19    1
    10    19    20    1
    11    20    21    1
    12    21    22    1
    13    22    23    1
    14    23    24    1
    15    24    25    1
    16     5     6   ar
    17     6     7   ar
    18     7     8    1
    19     7     9   ar
    20     9    10   ar
    21    10    11   ar
    22    11     2   ar
    23    10     4   ar
    24    23    18    1
    25    25    20    1
    26     1    12    1
    27     1    13    1
    28    16    17    1
