@<TRIPOS>MOLECULE
*****
 29 31 0 0 0
SMALL
GASTEIGER

@<TRIPOS>ATOM
      1 O          -8.3465  -19.8503   22.2172 O.2     1  UNL1       -0.2732
      2 C          -7.9540  -18.7236   21.3081 C.2     1  UNL1        0.2430
      3 N          -8.1615  -17.3028   21.7420 N.am    1  UNL1       -0.2972
      4 H          -7.9039  -16.5633   21.1453 H       1  UNL1        0.1500
      5 C          -7.3541  -19.0176   19.9652 C.3     1  UNL1        0.1759
      6 N          -5.9507  -18.5848   19.6596 N.am    1  UNL1       -0.2931
      7 C          -4.7922  -19.2879   20.3027 C.2     1  UNL1        0.2463
      8 O          -5.0370  -20.4238   21.2513 O.2     1  UNL1       -0.2701
      9 H          -5.7900  -17.8393   19.0370 H       1  UNL1        0.1502
     10 C          -3.3888  -18.8552   19.9971 C.ar    1  UNL1        0.0565
     11 C          -2.2759  -19.1966   20.9431 C.ar    1  UNL1        0.0252
     12 C          -0.8726  -18.7638   20.6375 C.ar    1  UNL1        0.0990
     13 N          -0.5822  -17.9896   19.3860 N.ar    1  UNL1       -0.2423
     14 C          -1.6951  -17.6482   18.4401 C.ar    1  UNL1        0.0990
     15 C          -3.0984  -18.0810   18.7456 C.ar    1  UNL1        0.0252
     16 C          -8.7615  -17.0087   23.0850 C.3     1  UNL1        0.1169
     17 C         -10.2064  -17.3166   23.3446 C.ar    1  UNL1       -0.0003
     18 C         -11.2777  -16.5067   22.6763 C.ar    1  UNL1       -0.0015
     19 C         -12.7226  -16.8146   22.9359 C.ar    1  UNL1        0.0111
     20 C         -13.0962  -17.9325   23.8638 C.ar    1  UNL1        0.0577
     21 CL        -14.5411  -18.2404   24.1234 Cl      1  UNL1       -0.0822
     22 C         -12.0250  -18.7423   24.5320 C.ar    1  UNL1        0.0111
     23 C         -10.5801  -18.4344   24.2724 C.ar    1  UNL1       -0.0015
     24 C          -7.9166  -16.4066   24.1683 C.ar    1  UNL1       -0.0003
     25 C          -6.4853  -16.0521   23.8933 C.ar    1  UNL1       -0.0024
     26 C          -5.6402  -15.4500   24.9767 C.ar    1  UNL1       -0.0003
     27 C          -6.2266  -15.2025   26.3349 C.ar    1  UNL1       -0.0000
     28 C          -7.6580  -15.5571   26.6099 C.ar    1  UNL1       -0.0003
     29 C          -8.5029  -16.1591   25.5266 C.ar    1  UNL1       -0.0024
@<TRIPOS>BOND
     1     1     2    2
     2     2     5    1
     3     5     6    1
     4     6     7   am
     5     7     8    2
     6     7    10    1
     7    10    11   ar
     8    11    12   ar
     9    12    13   ar
    10    13    14   ar
    11    14    15   ar
    12     2     3   am
    13     3    16    1
    14    16    24    1
    15    24    25   ar
    16    25    26   ar
    17    26    27   ar
    18    27    28   ar
    19    28    29   ar
    20    16    17    1
    21    17    18   ar
    22    18    19   ar
    23    19    20   ar
    24    20    21    1
    25    20    22   ar
    26    22    23   ar
    27    15    10   ar
    28    29    24   ar
    29    23    17   ar
    30     6     9    1
    31     3     4    1
@<TRIPOS>MOLECULE
*****
 29 31 0 0 0
SMALL
GASTEIGER

@<TRIPOS>ATOM
      1 O          -7.9867  -20.1849   22.6968 O.2     1  UNL1       -0.2732
      2 C          -7.3559  -19.3698   21.6070 C.2     1  UNL1        0.2430
      3 N          -7.6757  -17.9096   21.4817 N.am    1  UNL1       -0.2972
      4 H          -7.2617  -17.3747   20.7664 H       1  UNL1        0.1500
      5 C          -6.4053  -20.0148   20.6425 C.3     1  UNL1        0.1759
      6 N          -5.1327  -19.3169   20.2636 N.am    1  UNL1       -0.2931
      7 C          -4.1076  -19.0044   21.3131 C.2     1  UNL1        0.2463
      8 O          -4.3551  -19.3897   22.7415 O.2     1  UNL1       -0.2701
      9 H          -4.9702  -19.0641   19.3261 H       1  UNL1        0.1502
     10 C          -2.8350  -18.3066   20.9343 C.ar    1  UNL1        0.0565
     11 C          -2.4363  -17.0414   21.6344 C.ar    1  UNL1        0.0252
     12 C          -1.1637  -16.3436   21.2555 C.ar    1  UNL1        0.0990
     13 N          -0.2898  -16.9111   20.1765 N.ar    1  UNL1       -0.2423
     14 C          -0.6884  -18.1763   19.4764 C.ar    1  UNL1        0.0990
     15 C          -1.9610  -18.8741   19.8553 C.ar    1  UNL1        0.0252
     16 C          -8.6263  -17.2646   22.4462 C.3     1  UNL1        0.1169
     17 C          -8.1077  -16.6493   23.7122 C.ar    1  UNL1       -0.0003
     18 C          -9.0018  -16.5342   24.9112 C.ar    1  UNL1       -0.0015
     19 C          -8.4832  -15.9190   26.1771 C.ar    1  UNL1        0.0111
     20 C          -7.0706  -15.4187   26.2440 C.ar    1  UNL1        0.0577
     21 CL         -6.5520  -14.8034   27.5099 Cl      1  UNL1       -0.0822
     22 C          -6.1766  -15.5338   25.0450 C.ar    1  UNL1        0.0111
     23 C          -6.6952  -16.1490   23.7791 C.ar    1  UNL1       -0.0015
     24 C         -10.0954  -17.2348   22.1449 C.ar    1  UNL1       -0.0003
     25 C         -11.0286  -18.1583   22.8701 C.ar    1  UNL1       -0.0024
     26 C         -12.4978  -18.1286   22.5687 C.ar    1  UNL1       -0.0003
     27 C         -13.0336  -17.1752   21.5421 C.ar    1  UNL1       -0.0000
     28 C         -12.1003  -16.2516   20.8169 C.ar    1  UNL1       -0.0003
     29 C         -10.6312  -16.2814   21.1182 C.ar    1  UNL1       -0.0024
@<TRIPOS>BOND
     1     1     2    2
     2     2     5    1
     3     5     6    1
     4     6     7   am
     5     7     8    2
     6     7    10    1
     7    10    11   ar
     8    11    12   ar
     9    12    13   ar
    10    13    14   ar
    11    14    15   ar
    12     2     3   am
    13     3    16    1
    14    16    24    1
    15    24    25   ar
    16    25    26   ar
    17    26    27   ar
    18    27    28   ar
    19    28    29   ar
    20    16    17    1
    21    17    18   ar
    22    18    19   ar
    23    19    20   ar
    24    20    21    1
    25    20    22   ar
    26    22    23   ar
    27    15    10   ar
    28    29    24   ar
    29    23    17   ar
    30     6     9    1
    31     3     4    1
@<TRIPOS>MOLECULE
*****
 29 31 0 0 0
SMALL
GASTEIGER

@<TRIPOS>ATOM
      1 O          -8.0695  -15.8394   21.9308 O.2     1  UNL1       -0.2732
      2 C          -7.5126  -16.8206   22.9193 C.2     1  UNL1        0.2430
      3 N          -8.1859  -18.1457   23.1213 N.am    1  UNL1       -0.2972
      4 H          -7.8204  -18.7897   23.7700 H       1  UNL1        0.1500
      5 C          -6.2826  -16.4768   23.7058 C.3     1  UNL1        0.1759
      6 N          -4.9339  -16.5329   23.0515 N.am    1  UNL1       -0.2931
      7 C          -4.4321  -17.8245   22.4772 C.2     1  UNL1        0.2463
      8 O          -5.2788  -19.0600   22.5571 O.2     1  UNL1       -0.2701
      9 H          -4.3781  -15.7219   22.9990 H       1  UNL1        0.1502
     10 C          -3.0834  -17.8806   21.8229 C.ar    1  UNL1        0.0565
     11 C          -2.3027  -16.6185   21.6044 C.ar    1  UNL1        0.0252
     12 C          -0.9542  -16.6747   20.9501 C.ar    1  UNL1        0.0990
     13 N          -0.3863  -17.9929   20.5143 N.ar    1  UNL1       -0.2423
     14 C          -1.1669  -19.2549   20.7328 C.ar    1  UNL1        0.0990
     15 C          -2.5155  -19.1987   21.3871 C.ar    1  UNL1        0.0252
     16 C          -9.4160  -18.4896   22.3347 C.3     1  UNL1        0.1169
     17 C          -9.2891  -19.1625   21.0001 C.ar    1  UNL1       -0.0003
     18 C          -7.9319  -19.4871   20.4499 C.ar    1  UNL1       -0.0015
     19 C          -7.8050  -20.1600   19.1153 C.ar    1  UNL1        0.0111
     20 C          -9.0353  -20.5083   18.3310 C.ar    1  UNL1        0.0577
     21 CL         -8.9083  -21.1812   16.9964 Cl      1  UNL1       -0.0822
     22 C         -10.3924  -20.1837   18.8812 C.ar    1  UNL1        0.0111
     23 C         -10.5193  -19.5108   20.2158 C.ar    1  UNL1       -0.0015
     24 C         -10.7729  -18.1607   22.8828 C.ar    1  UNL1       -0.0003
     25 C         -11.5404  -16.9941   22.3350 C.ar    1  UNL1       -0.0024
     26 C         -12.8974  -16.6651   22.8830 C.ar    1  UNL1       -0.0003
     27 C         -13.4869  -17.5027   23.9789 C.ar    1  UNL1       -0.0000
     28 C         -12.7194  -18.6693   24.5267 C.ar    1  UNL1       -0.0003
     29 C         -11.3624  -18.9983   23.9787 C.ar    1  UNL1       -0.0024
@<TRIPOS>BOND
     1     1     2    2
     2     2     5    1
     3     5     6    1
     4     6     7   am
     5     7     8    2
     6     7    10    1
     7    10    11   ar
     8    11    12   ar
     9    12    13   ar
    10    13    14   ar
    11    14    15   ar
    12     2     3   am
    13     3    16    1
    14    16    24    1
    15    24    25   ar
    16    25    26   ar
    17    26    27   ar
    18    27    28   ar
    19    28    29   ar
    20    16    17    1
    21    17    18   ar
    22    18    19   ar
    23    19    20   ar
    24    20    21    1
    25    20    22   ar
    26    22    23   ar
    27    15    10   ar
    28    29    24   ar
    29    23    17   ar
    30     6     9    1
    31     3     4    1
