@<TRIPOS>MOLECULE
*****
 40 43 0 0 0
SMALL
GASTEIGER

@<TRIPOS>ATOM
      1 C           8.1108   -6.5633   24.0873 C.2     1  UNL1        0.2256
      2 O           8.5033   -6.8035   22.6597 O.2     1  UNL1       -0.2749
      3 N           7.6584   -5.2007   24.5217 N.am    1  UNL1       -0.2794
      4 C           7.2659   -4.9604   25.9493 C.3     1  UNL1        0.0951
      5 C           6.8134   -3.5979   26.3836 C.3     1  UNL1        0.0412
      6 C           6.7534   -2.4755   25.3903 C.3     1  UNL1        0.0777
      7 C           7.1459   -2.7157   23.9627 C.3     1  UNL1        0.0539
      8 C           7.5984   -4.0783   23.5284 C.3     1  UNL1        0.0964
      9 N           6.3010   -1.1129   25.8247 N.am    1  UNL1       -0.2901
     10 C           4.8579   -0.8719   26.1555 C.2     1  UNL1        0.3058
     11 O           3.8673   -1.9935   26.0519 O.2     1  UNL1       -0.2524
     12 N           4.4055    0.4907   26.5898 N.am    1  UNL1       -0.2485
     13 H           6.9512   -0.3768   25.8926 H       1  UNL1        0.1509
     14 H           5.0557    1.2268   26.6578 H       1  UNL1        0.1583
     15 C           2.9624    0.7317   26.9206 C.ar    1  UNL1        0.1664
     16 N           1.9693    1.4546   26.0597 N.ar    1  UNL1       -0.2282
     17 C           0.6522    1.4617   26.7775 C.ar    1  UNL1        0.0701
     18 C          -0.6206    2.0790   26.2783 C.3     1  UNL1        0.0528
     19 C           0.8312    0.7432   28.0820 C.ar    1  UNL1        0.0803
     20 S           2.2590    0.2920   28.1704 S.2     1  UNL1       -0.0488
     21 C          -0.2310    0.5158   29.1163 C.2     1  UNL1        0.1807
     22 C          -1.3610   -0.4298   28.8356 C.3     1  UNL1        0.0779
     23 O          -0.1632    1.2340   30.4315 O.2     1  UNL1       -0.2908
     24 C           9.4689   -8.0254   25.7509 C.3     1  UNL1        0.0101
     25 C           8.1708   -7.6856   25.0806 C.3     1  UNL1        0.0853
     26 C           7.0860   -1.5933   22.9693 C.3     1  UNL1        0.0754
     27 N           6.6894   -1.8690   21.5492 N.3     1  UNL1       -0.2726
     28 C           7.7438   -2.0633   20.5003 C.3     1  UNL1        0.0721
     29 C           7.3472   -2.3390   19.0801 C.3     1  UNL1        0.0174
     30 C           5.8961   -2.4204   18.7090 C.3     1  UNL1        0.0031
     31 C           4.8416   -2.2261   19.7580 C.3     1  UNL1        0.0204
     32 C           5.2383   -1.9504   21.1781 C.3     1  UNL1        0.0724
     33 C           3.3906   -2.3075   19.3870 C.3     1  UNL1        0.0277
     34 C           2.5516   -1.0643   19.3634 C.ar    1  UNL1       -0.0220
     35 C           2.8416    0.0175   18.3656 C.ar    1  UNL1       -0.0020
     36 C           2.0026    1.2607   18.3420 C.ar    1  UNL1        0.0293
     37 C           0.8736    1.4221   19.3163 C.ar    1  UNL1        0.1401
     38 F           0.0346    2.6654   19.2928 F       1  UNL1       -0.2042
     39 C           0.5836    0.3404   20.3142 C.ar    1  UNL1        0.0293
     40 C           1.4226   -0.9028   20.3377 C.ar    1  UNL1       -0.0020
@<TRIPOS>BOND
     1    24    25    1
     2    25     1    1
     3     1     2    2
     4     1     3   am
     5     3     4    1
     6     4     5    1
     7     5     6    1
     8     6     9    1
     9     9    10   am
    10    10    11    2
    11    10    12   am
    12    12    15    1
    13    15    16   ar
    14    16    17   ar
    15    17    18    1
    16    17    19   ar
    17    19    21    1
    18    21    22    1
    19    21    23    2
    20    19    20   ar
    21     6     7    1
    22     7    26    1
    23    26    27    1
    24    27    28    1
    25    28    29    1
    26    29    30    1
    27    30    31    1
    28    31    33    1
    29    33    34    1
    30    34    35   ar
    31    35    36   ar
    32    36    37   ar
    33    37    38    1
    34    37    39   ar
    35    39    40   ar
    36    31    32    1
    37     7     8    1
    38     8     3    1
    39    20    15   ar
    40    32    27    1
    41    40    34   ar
    42     9    13    1
    43    12    14    1
@<TRIPOS>MOLECULE
*****
 40 43 0 0 0
SMALL
GASTEIGER

@<TRIPOS>ATOM
      1 C           5.0394   -2.3252   19.9322 C.2     1  UNL1        0.2256
      2 O           6.0693   -2.3836   21.0211 O.2     1  UNL1       -0.2749
      3 N           4.1579   -1.1190   19.7974 N.am    1  UNL1       -0.2794
      4 C           3.1280   -1.0606   18.7085 C.3     1  UNL1        0.0951
      5 C           2.2466    0.1456   18.5737 C.3     1  UNL1        0.0412
      6 C           2.3950    1.2934   19.5279 C.3     1  UNL1        0.0777
      7 C           3.4249    1.2350   20.6169 C.3     1  UNL1        0.0539
      8 C           4.3063    0.0288   20.7516 C.3     1  UNL1        0.0964
      9 N           1.5135    2.4996   19.3932 N.am    1  UNL1       -0.2901
     10 C           0.0974    2.4524   19.8855 C.2     1  UNL1        0.3058
     11 O          -0.4373    1.1990   20.5125 O.2     1  UNL1       -0.2524
     12 N          -0.7841    3.6585   19.7507 N.am    1  UNL1       -0.2485
     13 H           1.8644    3.3222   18.9817 H       1  UNL1        0.1509
     14 H          -0.4331    4.4812   19.3392 H       1  UNL1        0.1583
     15 C          -2.2002    3.6113   20.2430 C.ar    1  UNL1        0.1664
     16 N          -2.6385    3.2678   21.6358 N.ar    1  UNL1       -0.2282
     17 C          -4.1359    3.3435   21.6825 C.ar    1  UNL1        0.0701
     18 C          -4.9952    3.0759   22.8825 C.3     1  UNL1        0.0528
     19 C          -4.6230    3.7338   20.3185 C.ar    1  UNL1        0.0803
     20 S          -3.4267    3.8993   19.4289 S.2     1  UNL1       -0.0488
     21 C          -6.0550    3.9250   19.9150 C.2     1  UNL1        0.1807
     22 C          -6.6256    3.1326   18.7763 C.3     1  UNL1        0.0779
     23 O          -6.9165    4.9085   20.6502 O.2     1  UNL1       -0.2908
     24 C           4.0070   -4.6322   19.3310 C.3     1  UNL1        0.0101
     25 C           4.8909   -3.4729   18.9780 C.3     1  UNL1        0.0853
     26 C           3.5733    2.3828   21.5712 C.3     1  UNL1        0.0754
     27 N           2.4391    2.7543   22.4797 N.3     1  UNL1       -0.2726
     28 C           1.8926    4.1511   22.4645 C.3     1  UNL1        0.0721
     29 C           0.7583    4.5226   23.3732 C.3     1  UNL1        0.0174
     30 C           0.1707    3.4973   24.2969 C.3     1  UNL1        0.0031
     31 C           0.7172    2.1005   24.3121 C.3     1  UNL1        0.0204
     32 C           1.8514    1.7290   23.4036 C.3     1  UNL1        0.0724
     33 C           0.1295    1.0752   25.2359 C.3     1  UNL1        0.0277
     34 C           0.3457    1.1875   26.7160 C.ar    1  UNL1       -0.0220
     35 C          -0.7587    0.8269   27.6648 C.ar    1  UNL1       -0.0020
     36 C          -0.5426    0.9393   29.1448 C.ar    1  UNL1        0.0293
     37 C           0.7780    1.4122   29.6761 C.ar    1  UNL1        0.1401
     38 F           0.9942    1.5245   31.1562 F       1  UNL1       -0.2042
     39 C           1.8825    1.7727   28.7273 C.ar    1  UNL1        0.0293
     40 C           1.6663    1.6604   27.2473 C.ar    1  UNL1       -0.0020
@<TRIPOS>BOND
     1    24    25    1
     2    25     1    1
     3     1     2    2
     4     1     3   am
     5     3     4    1
     6     4     5    1
     7     5     6    1
     8     6     9    1
     9     9    10   am
    10    10    11    2
    11    10    12   am
    12    12    15    1
    13    15    16   ar
    14    16    17   ar
    15    17    18    1
    16    17    19   ar
    17    19    21    1
    18    21    22    1
    19    21    23    2
    20    19    20   ar
    21     6     7    1
    22     7    26    1
    23    26    27    1
    24    27    28    1
    25    28    29    1
    26    29    30    1
    27    30    31    1
    28    31    33    1
    29    33    34    1
    30    34    35   ar
    31    35    36   ar
    32    36    37   ar
    33    37    38    1
    34    37    39   ar
    35    39    40   ar
    36    31    32    1
    37     7     8    1
    38     8     3    1
    39    20    15   ar
    40    32    27    1
    41    40    34   ar
    42     9    13    1
    43    12    14    1
@<TRIPOS>MOLECULE
*****
 40 43 0 0 0
SMALL
GASTEIGER

@<TRIPOS>ATOM
      1 C           7.9135   -6.5584   25.5732 C.2     1  UNL1        0.2256
      2 O           8.7362   -6.4148   24.3273 O.2     1  UNL1       -0.2749
      3 N           7.3951   -5.3380   26.2745 N.am    1  UNL1       -0.2794
      4 C           6.5724   -5.4816   27.5204 C.3     1  UNL1        0.0951
      5 C           6.0540   -4.2611   28.2217 C.3     1  UNL1        0.0412
      6 C           6.3583   -2.8971   27.6770 C.3     1  UNL1        0.0777
      7 C           7.1810   -2.7535   26.4311 C.3     1  UNL1        0.0539
      8 C           7.6994   -3.9740   25.7298 C.3     1  UNL1        0.0964
      9 N           5.8399   -1.6767   28.3783 N.am    1  UNL1       -0.2901
     10 C           4.4221   -1.2352   28.1661 C.2     1  UNL1        0.3058
     11 O           3.5227   -2.0142   27.2527 O.2     1  UNL1       -0.2524
     12 N           3.9037   -0.0147   28.8674 N.am    1  UNL1       -0.2485
     13 H           6.4302   -1.1654   28.9778 H       1  UNL1        0.1509
     14 H           4.4940    0.4965   29.4669 H       1  UNL1        0.1583
     15 C           2.4859    0.4267   28.6552 C.ar    1  UNL1        0.1664
     16 N           1.2581   -0.2923   29.1301 N.ar    1  UNL1       -0.2282
     17 C           0.0604    0.5013   28.6993 C.ar    1  UNL1        0.0701
     18 C          -1.3732    0.1475   28.9633 C.3     1  UNL1        0.0528
     19 C           0.5479    1.7109   27.9581 C.ar    1  UNL1        0.0803
     20 S           2.0470    1.6648   27.9309 S.2     1  UNL1       -0.0488
     21 C          -0.3125    2.7790   27.3508 C.2     1  UNL1        0.1807
     22 C          -0.2109    4.1929   27.8412 C.3     1  UNL1        0.0779
     23 O          -1.2745    2.4331   26.2531 O.2     1  UNL1       -0.2908
     24 C           8.5138   -8.5398   27.1429 C.3     1  UNL1        0.0101
     25 C           7.6092   -7.9225   26.1179 C.3     1  UNL1        0.0853
     26 C           7.4854   -1.3894   25.8863 C.3     1  UNL1        0.0754
     27 N           6.3794   -0.5360   25.3402 N.3     1  UNL1       -0.2726
     28 C           6.3415    0.9313   25.6497 C.3     1  UNL1        0.0721
     29 C           5.2354    1.7847   25.1035 C.3     1  UNL1        0.0174
     30 C           4.1673    1.1709   24.2479 C.3     1  UNL1        0.0031
     31 C           4.2051   -0.2963   23.9383 C.3     1  UNL1        0.0204
     32 C           5.3111   -1.1497   24.4845 C.3     1  UNL1        0.0724
     33 C           3.1369   -0.9101   23.0827 C.3     1  UNL1        0.0277
     34 C           3.5146   -1.7783   21.9192 C.ar    1  UNL1       -0.0220
     35 C           4.2437   -3.0684   22.1516 C.ar    1  UNL1       -0.0020
     36 C           4.6213   -3.9366   20.9881 C.ar    1  UNL1        0.0293
     37 C           4.2699   -3.5146   19.5923 C.ar    1  UNL1        0.1401
     38 F           4.6476   -4.3828   18.4288 F       1  UNL1       -0.2042
     39 C           3.5409   -2.2245   19.3599 C.ar    1  UNL1        0.0293
     40 C           3.1632   -1.3563   20.5233 C.ar    1  UNL1       -0.0020
@<TRIPOS>BOND
     1    24    25    1
     2    25     1    1
     3     1     2    2
     4     1     3   am
     5     3     4    1
     6     4     5    1
     7     5     6    1
     8     6     9    1
     9     9    10   am
    10    10    11    2
    11    10    12   am
    12    12    15    1
    13    15    16   ar
    14    16    17   ar
    15    17    18    1
    16    17    19   ar
    17    19    21    1
    18    21    22    1
    19    21    23    2
    20    19    20   ar
    21     6     7    1
    22     7    26    1
    23    26    27    1
    24    27    28    1
    25    28    29    1
    26    29    30    1
    27    30    31    1
    28    31    33    1
    29    33    34    1
    30    34    35   ar
    31    35    36   ar
    32    36    37   ar
    33    37    38    1
    34    37    39   ar
    35    39    40   ar
    36    31    32    1
    37     7     8    1
    38     8     3    1
    39    20    15   ar
    40    32    27    1
    41    40    34   ar
    42     9    13    1
    43    12    14    1
@<TRIPOS>MOLECULE
*****
 40 43 0 0 0
SMALL
GASTEIGER

@<TRIPOS>ATOM
      1 C           5.2588   -2.1714   19.8324 C.2     1  UNL1        0.2256
      2 O           6.1318   -2.3129   21.0440 O.2     1  UNL1       -0.2749
      3 N           4.3478   -0.9873   19.6986 N.am    1  UNL1       -0.2794
      4 C           3.4749   -0.8457   18.4871 C.3     1  UNL1        0.0951
      5 C           2.5639    0.3384   18.3532 C.3     1  UNL1        0.0412
      6 C           2.5258    1.3810   19.4309 C.3     1  UNL1        0.0777
      7 C           3.3988    1.2395   20.6424 C.3     1  UNL1        0.0539
      8 C           4.3098    0.0554   20.7763 C.3     1  UNL1        0.0964
      9 N           1.6149    2.5652   19.2971 N.am    1  UNL1       -0.2901
     10 C           0.1972    2.4791   19.7795 C.2     1  UNL1        0.3058
     11 O          -0.3096    1.2089   20.3958 O.2     1  UNL1       -0.2524
     12 N          -0.7138    3.6633   19.6456 N.am    1  UNL1       -0.2485
     13 H           1.9474    3.3989   18.8926 H       1  UNL1        0.1509
     14 H          -0.3812    4.4970   19.2412 H       1  UNL1        0.1583
     15 C          -2.1315    3.5772   20.1281 C.ar    1  UNL1        0.1664
     16 N          -2.5706    3.2002   21.5119 N.ar    1  UNL1       -0.2282
     17 C          -4.0695    3.2430   21.5505 C.ar    1  UNL1        0.0701
     18 C          -4.9300    2.9362   22.7402 C.3     1  UNL1        0.0528
     19 C          -4.5568    3.6464   20.1903 C.ar    1  UNL1        0.0803
     20 S          -3.3591    3.8529   19.3113 S.2     1  UNL1       -0.0488
     21 C          -5.9902    3.8138   19.7812 C.2     1  UNL1        0.1807
     22 C          -6.8190    4.9094   20.3836 C.3     1  UNL1        0.0779
     23 O          -6.5947    2.8857   18.7697 O.2     1  UNL1       -0.2908
     24 C           4.3928   -4.4083   18.8344 C.3     1  UNL1        0.0101
     25 C           5.2968   -3.2140   18.7547 C.3     1  UNL1        0.0853
     26 C           3.3608    2.2821   21.7202 C.3     1  UNL1        0.0754
     27 N           3.0217    1.8930   23.1286 N.3     1  UNL1       -0.2726
     28 C           4.1153    1.5474   24.0953 C.3     1  UNL1        0.0721
     29 C           3.7761    1.1583   25.5037 C.3     1  UNL1        0.0174
     30 C           2.3433    1.1147   25.9453 C.3     1  UNL1        0.0031
     31 C           1.2496    1.4602   24.9786 C.3     1  UNL1        0.0204
     32 C           1.5888    1.8494   23.5703 C.3     1  UNL1        0.0724
     33 C          -0.1832    1.4167   25.4203 C.3     1  UNL1        0.0277
     34 C          -0.8623    2.6697   25.8880 C.ar    1  UNL1       -0.0220
     35 C          -0.2849    3.4549   27.0282 C.ar    1  UNL1       -0.0020
     36 C          -0.9639    4.7079   27.4959 C.ar    1  UNL1        0.0293
     37 C          -2.2205    5.1757   26.8234 C.ar    1  UNL1        0.1401
     38 F          -2.8996    6.4288   27.2911 F       1  UNL1       -0.2042
     39 C          -2.7979    4.3905   25.6832 C.ar    1  UNL1        0.0293
     40 C          -2.1188    3.1375   25.2155 C.ar    1  UNL1       -0.0020
@<TRIPOS>BOND
     1    24    25    1
     2    25     1    1
     3     1     2    2
     4     1     3   am
     5     3     4    1
     6     4     5    1
     7     5     6    1
     8     6     9    1
     9     9    10   am
    10    10    11    2
    11    10    12   am
    12    12    15    1
    13    15    16   ar
    14    16    17   ar
    15    17    18    1
    16    17    19   ar
    17    19    21    1
    18    21    22    1
    19    21    23    2
    20    19    20   ar
    21     6     7    1
    22     7    26    1
    23    26    27    1
    24    27    28    1
    25    28    29    1
    26    29    30    1
    27    30    31    1
    28    31    33    1
    29    33    34    1
    30    34    35   ar
    31    35    36   ar
    32    36    37   ar
    33    37    38    1
    34    37    39   ar
    35    39    40   ar
    36    31    32    1
    37     7     8    1
    38     8     3    1
    39    20    15   ar
    40    32    27    1
    41    40    34   ar
    42     9    13    1
    43    12    14    1
@<TRIPOS>MOLECULE
*****
 40 43 0 0 0
SMALL
GASTEIGER

@<TRIPOS>ATOM
      1 C           8.6902   -6.7033   28.0798 C.2     1  UNL1        0.2256
      2 O           9.0191   -7.7300   29.1228 O.2     1  UNL1       -0.2749
      3 N           8.4433   -5.2792   28.4809 N.am    1  UNL1       -0.2794
      4 C           8.1143   -4.2526   27.4380 C.3     1  UNL1        0.0951
      5 C           7.8675   -2.8284   27.8391 C.3     1  UNL1        0.0412
      6 C           7.9496   -2.4309   29.2831 C.3     1  UNL1        0.0777
      7 C           8.2785   -3.4576   30.3260 C.3     1  UNL1        0.0539
      8 C           8.5254   -4.8817   29.9249 C.3     1  UNL1        0.0964
      9 N           7.7027   -1.0068   29.6842 N.am    1  UNL1       -0.2901
     10 C           6.3051   -0.4621   29.6949 C.2     1  UNL1        0.3058
     11 O           5.1544   -1.3416   29.3045 O.2     1  UNL1       -0.2524
     12 N           6.0583    0.9620   30.0960 N.am    1  UNL1       -0.2485
     13 H           8.4579   -0.4295   29.9404 H       1  UNL1        0.1509
     14 H           6.8135    1.5393   30.3522 H       1  UNL1        0.1583
     15 C           4.6606    1.5067   30.1067 C.ar    1  UNL1        0.1664
     16 N           3.9681    2.1804   28.9593 N.ar    1  UNL1       -0.2282
     17 C           2.5897    2.5633   29.4102 C.ar    1  UNL1        0.0701
     18 C           1.5527    3.2609   28.5807 C.3     1  UNL1        0.0528
     19 C           2.4302    2.1262   30.8363 C.ar    1  UNL1        0.0803
     20 S           3.7102    1.4732   31.2667 S.2     1  UNL1       -0.0488
     21 C           1.2059    2.3099   31.6831 C.2     1  UNL1        0.1807
     22 C           1.2080    3.3151   32.7965 C.3     1  UNL1        0.0779
     23 O          -0.0205    1.4884   31.4166 O.2     1  UNL1       -0.2908
     24 C           7.3972   -7.8236   26.1245 C.3     1  UNL1        0.0101
     25 C           8.6081   -7.1009   26.6358 C.3     1  UNL1        0.0853
     26 C           8.3606   -3.0601   31.7701 C.3     1  UNL1        0.0754
     27 N           7.1527   -2.5054   32.4652 N.3     1  UNL1       -0.2726
     28 C           5.8387   -3.2230   32.3728 C.3     1  UNL1        0.0721
     29 C           4.6307   -2.6682   33.0680 C.3     1  UNL1        0.0174
     30 C           4.7368   -1.3959   33.8553 C.3     1  UNL1        0.0031
     31 C           6.0507   -0.6783   33.9476 C.3     1  UNL1        0.0204
     32 C           7.2587   -1.2330   33.2526 C.3     1  UNL1        0.0724
     33 C           6.1568    0.5940   34.7350 C.3     1  UNL1        0.0277
     34 C           5.0295    1.0192   35.6285 C.ar    1  UNL1       -0.0220
     35 C           4.9391    0.4856   37.0275 C.ar    1  UNL1       -0.0020
     36 C           3.8119    0.9108   37.9211 C.ar    1  UNL1        0.0293
     37 C           2.7750    1.8696   37.4156 C.ar    1  UNL1        0.1401
     38 F           1.6476    2.2948   38.3092 F       1  UNL1       -0.2042
     39 C           2.8653    2.4032   36.0167 C.ar    1  UNL1        0.0293
     40 C           3.9925    1.9780   35.1231 C.ar    1  UNL1       -0.0020
@<TRIPOS>BOND
     1    24    25    1
     2    25     1    1
     3     1     2    2
     4     1     3   am
     5     3     4    1
     6     4     5    1
     7     5     6    1
     8     6     9    1
     9     9    10   am
    10    10    11    2
    11    10    12   am
    12    12    15    1
    13    15    16   ar
    14    16    17   ar
    15    17    18    1
    16    17    19   ar
    17    19    21    1
    18    21    22    1
    19    21    23    2
    20    19    20   ar
    21     6     7    1
    22     7    26    1
    23    26    27    1
    24    27    28    1
    25    28    29    1
    26    29    30    1
    27    30    31    1
    28    31    33    1
    29    33    34    1
    30    34    35   ar
    31    35    36   ar
    32    36    37   ar
    33    37    38    1
    34    37    39   ar
    35    39    40   ar
    36    31    32    1
    37     7     8    1
    38     8     3    1
    39    20    15   ar
    40    32    27    1
    41    40    34   ar
    42     9    13    1
    43    12    14    1
@<TRIPOS>MOLECULE
*****
 40 43 0 0 0
SMALL
GASTEIGER

@<TRIPOS>ATOM
      1 C          -3.4082    4.9884   19.2639 C.2     1  UNL1        0.2256
      2 O          -3.8971    5.5445   20.5684 O.2     1  UNL1       -0.2749
      3 N          -2.0210    4.4273   19.1606 N.am    1  UNL1       -0.2794
      4 C          -1.5321    3.8712   17.8561 C.3     1  UNL1        0.0951
      5 C          -0.1449    3.3101   17.7527 C.3     1  UNL1        0.0412
      6 C           0.7535    3.3051   18.9538 C.3     1  UNL1        0.0777
      7 C           0.2647    3.8612   20.2583 C.3     1  UNL1        0.0539
      8 C          -1.1225    4.4223   20.3617 C.3     1  UNL1        0.0964
      9 N           2.1408    2.7440   18.8504 N.am    1  UNL1       -0.2901
     10 C           2.4013    1.3145   19.2226 C.2     1  UNL1        0.3058
     11 O           1.2745    0.4460   19.6982 O.2     1  UNL1       -0.2524
     12 N           3.7886    0.7534   19.1192 N.am    1  UNL1       -0.2485
     13 H           2.8803    3.3141   18.5383 H       1  UNL1        0.1509
     14 H           4.5281    1.3234   18.8071 H       1  UNL1        0.1583
     15 C           4.0490   -0.6762   19.4915 C.ar    1  UNL1        0.1664
     16 N           3.6017   -1.8833   18.7216 N.ar    1  UNL1       -0.2282
     17 C           4.0788   -3.1027   19.4532 C.ar    1  UNL1        0.0701
     18 C           3.8533   -4.5258   19.0360 C.3     1  UNL1        0.0528
     19 C           4.8210   -2.6493   20.6754 C.ar    1  UNL1        0.0803
     20 S           4.8026   -1.1496   20.6990 S.2     1  UNL1       -0.0488
     21 C           5.4680   -3.5393   21.6948 C.2     1  UNL1        0.1807
     22 C           4.9526   -3.5646   23.1033 C.3     1  UNL1        0.0779
     23 O           6.6304   -4.4039   21.3059 O.2     1  UNL1       -0.2908
     24 C          -5.1299    3.7826   17.7369 C.3     1  UNL1        0.0101
     25 C          -4.3067    4.9934   18.0628 C.3     1  UNL1        0.0853
     26 C           1.1632    3.8562   21.4595 C.3     1  UNL1        0.0754
     27 N           0.7781    3.0753   22.6809 N.3     1  UNL1       -0.2726
     28 C           1.3264    1.6952   22.8924 C.3     1  UNL1        0.0721
     29 C           0.9413    0.9142   24.1138 C.3     1  UNL1        0.0174
     30 C           0.0079    1.5133   25.1236 C.3     1  UNL1        0.0031
     31 C          -0.5404    2.8933   24.9121 C.3     1  UNL1        0.0204
     32 C          -0.1553    3.6743   23.6908 C.3     1  UNL1        0.0724
     33 C          -1.4738    3.4924   25.9220 C.3     1  UNL1        0.0277
     34 C          -2.9110    3.7322   25.5654 C.ar    1  UNL1       -0.0220
     35 C          -3.4341    3.2994   24.2279 C.ar    1  UNL1       -0.0020
     36 C          -4.8712    3.5391   23.8713 C.ar    1  UNL1        0.0293
     37 C          -5.7852    4.2117   24.8523 C.ar    1  UNL1        0.1401
     38 F          -7.2224    4.4514   24.4957 F       1  UNL1       -0.2042
     39 C          -5.2620    4.6445   26.1898 C.ar    1  UNL1        0.0293
     40 C          -3.8249    4.4047   26.5464 C.ar    1  UNL1       -0.0020
@<TRIPOS>BOND
     1    24    25    1
     2    25     1    1
     3     1     2    2
     4     1     3   am
     5     3     4    1
     6     4     5    1
     7     5     6    1
     8     6     9    1
     9     9    10   am
    10    10    11    2
    11    10    12   am
    12    12    15    1
    13    15    16   ar
    14    16    17   ar
    15    17    18    1
    16    17    19   ar
    17    19    21    1
    18    21    22    1
    19    21    23    2
    20    19    20   ar
    21     6     7    1
    22     7    26    1
    23    26    27    1
    24    27    28    1
    25    28    29    1
    26    29    30    1
    27    30    31    1
    28    31    33    1
    29    33    34    1
    30    34    35   ar
    31    35    36   ar
    32    36    37   ar
    33    37    38    1
    34    37    39   ar
    35    39    40   ar
    36    31    32    1
    37     7     8    1
    38     8     3    1
    39    20    15   ar
    40    32    27    1
    41    40    34   ar
    42     9    13    1
    43    12    14    1
@<TRIPOS>MOLECULE
*****
 40 43 0 0 0
SMALL
GASTEIGER

@<TRIPOS>ATOM
      1 C           8.0239   -5.8188   30.8119 C.2     1  UNL1        0.2256
      2 O           7.8423   -6.7331   31.9869 O.2     1  UNL1       -0.2749
      3 N           7.3708   -4.4684   30.8043 N.am    1  UNL1       -0.2794
      4 C           7.5524   -3.5541   29.6292 C.3     1  UNL1        0.0951
      5 C           6.8993   -2.2037   29.6216 C.3     1  UNL1        0.0412
      6 C           6.0645   -1.7678   30.7891 C.3     1  UNL1        0.0777
      7 C           5.8829   -2.6822   31.9642 C.3     1  UNL1        0.0539
      8 C           6.5361   -4.0325   31.9718 C.3     1  UNL1        0.0964
      9 N           5.4114   -0.4175   30.7815 N.am    1  UNL1       -0.2901
     10 C           4.0527   -0.2450   30.1698 C.2     1  UNL1        0.3058
     11 O           3.3471   -1.4228   29.5656 O.2     1  UNL1       -0.2524
     12 N           3.3996    1.1054   30.1623 N.am    1  UNL1       -0.2485
     13 H           5.8745    0.3555   31.1781 H       1  UNL1        0.1509
     14 H           3.8627    1.8784   30.5588 H       1  UNL1        0.1583
     15 C           2.0409    1.2779   29.5505 C.ar    1  UNL1        0.1664
     16 N           0.8194    0.4695   29.8736 N.ar    1  UNL1       -0.2282
     17 C          -0.3113    0.9811   29.0310 C.ar    1  UNL1        0.0701
     18 C          -1.7178    0.4597   29.0322 C.3     1  UNL1        0.0528
     19 C           0.2115    2.1056   28.1871 C.ar    1  UNL1        0.0803
     20 S           1.6652    2.2890   28.5081 S.2     1  UNL1       -0.0488
     21 C          -0.5804    2.9062   27.1961 C.2     1  UNL1        0.1807
     22 C          -0.9411    2.3102   25.8677 C.3     1  UNL1        0.0779
     23 O          -1.0117    4.3027   27.5336 O.2     1  UNL1       -0.2908
     24 C           8.2136   -6.9355   28.4737 C.3     1  UNL1        0.0101
     25 C           8.8587   -6.2547   29.6443 C.3     1  UNL1        0.0853
     26 C           5.0481   -2.2463   33.1318 C.3     1  UNL1        0.0754
     27 N           5.4346   -1.0280   33.9168 N.3     1  UNL1       -0.2726
     28 C           6.8510   -0.8510   34.3779 C.3     1  UNL1        0.0721
     29 C           7.2374    0.3674   35.1629 C.3     1  UNL1        0.0174
     30 C           6.2076    1.4087   35.4869 C.3     1  UNL1        0.0031
     31 C           4.7912    1.2317   35.0258 C.3     1  UNL1        0.0204
     32 C           4.4047    0.0134   34.2408 C.3     1  UNL1        0.0724
     33 C           3.7613    2.2730   35.3498 C.3     1  UNL1        0.0277
     34 C           2.9991    2.1983   36.6396 C.ar    1  UNL1       -0.0220
     35 C           3.1995    1.0332   37.5628 C.ar    1  UNL1       -0.0020
     36 C           2.4374    0.9585   38.8525 C.ar    1  UNL1        0.0293
     37 C           1.4749    2.0489   39.2191 C.ar    1  UNL1        0.1401
     38 F           0.7127    1.9742   40.5089 F       1  UNL1       -0.2042
     39 C           1.2744    3.2140   38.2959 C.ar    1  UNL1        0.0293
     40 C           2.0366    3.2888   37.0062 C.ar    1  UNL1       -0.0020
@<TRIPOS>BOND
     1    24    25    1
     2    25     1    1
     3     1     2    2
     4     1     3   am
     5     3     4    1
     6     4     5    1
     7     5     6    1
     8     6     9    1
     9     9    10   am
    10    10    11    2
    11    10    12   am
    12    12    15    1
    13    15    16   ar
    14    16    17   ar
    15    17    18    1
    16    17    19   ar
    17    19    21    1
    18    21    22    1
    19    21    23    2
    20    19    20   ar
    21     6     7    1
    22     7    26    1
    23    26    27    1
    24    27    28    1
    25    28    29    1
    26    29    30    1
    27    30    31    1
    28    31    33    1
    29    33    34    1
    30    34    35   ar
    31    35    36   ar
    32    36    37   ar
    33    37    38    1
    34    37    39   ar
    35    39    40   ar
    36    31    32    1
    37     7     8    1
    38     8     3    1
    39    20    15   ar
    40    32    27    1
    41    40    34   ar
    42     9    13    1
    43    12    14    1
@<TRIPOS>MOLECULE
*****
 40 43 0 0 0
SMALL
GASTEIGER

@<TRIPOS>ATOM
      1 C           4.9541   -0.8604   18.1229 C.2     1  UNL1        0.2256
      2 O           4.1659   -1.5150   17.0274 O.2     1  UNL1       -0.2749
      3 N           4.2478   -0.0806   19.1920 N.am    1  UNL1       -0.2794
      4 C           5.0360    0.5740   20.2875 C.3     1  UNL1        0.0951
      5 C           4.3298    1.3539   21.3567 C.3     1  UNL1        0.0412
      6 C           2.8353    1.4791   21.3303 C.3     1  UNL1        0.0777
      7 C           2.0471    0.8245   20.2348 C.3     1  UNL1        0.0539
      8 C           2.7533    0.0447   19.1657 C.3     1  UNL1        0.0964
      9 N           2.1290    2.2589   22.3994 N.am    1  UNL1       -0.2901
     10 C           1.8387    1.6207   23.7254 C.2     1  UNL1        0.3058
     11 O           2.2547    0.2026   23.9824 O.2     1  UNL1       -0.2524
     12 N           1.1324    2.4005   24.7946 N.am    1  UNL1       -0.2485
     13 H           1.8559    3.1896   22.2308 H       1  UNL1        0.1509
     14 H           0.8594    3.3312   24.6260 H       1  UNL1        0.1583
     15 C           0.8422    1.7622   26.1206 C.ar    1  UNL1        0.1664
     16 N          -0.4434    1.0989   26.5173 N.ar    1  UNL1       -0.2282
     17 C          -0.2935    0.6019   27.9247 C.ar    1  UNL1        0.0701
     18 C          -1.3384   -0.1238   28.7194 C.3     1  UNL1        0.0528
     19 C           1.0847    0.9581   28.3978 C.ar    1  UNL1        0.0803
     20 S           1.7865    1.6752   27.2828 S.2     1  UNL1       -0.0488
     21 C           1.6599    0.6511   29.7486 C.2     1  UNL1        0.1807
     22 C           1.9661    1.7660   30.7044 C.3     1  UNL1        0.0779
     23 O           1.9289   -0.7707   30.1438 O.2     1  UNL1       -0.2908
     24 C           7.0867   -2.2504   18.6425 C.3     1  UNL1        0.0101
     25 C           6.4486   -0.9856   18.1493 C.3     1  UNL1        0.0853
     26 C           0.5525    0.9497   20.2084 C.3     1  UNL1        0.0754
     27 N          -0.0840    2.2748   19.9100 N.3     1  UNL1       -0.2726
     28 C           0.5832    3.2320   18.9673 C.3     1  UNL1        0.0721
     29 C          -0.0533    4.5571   18.6689 C.3     1  UNL1        0.0174
     30 C          -1.3570    4.9250   19.3132 C.3     1  UNL1        0.0031
     31 C          -2.0242    3.9677   20.2559 C.3     1  UNL1        0.0204
     32 C          -1.3877    2.6427   20.5543 C.3     1  UNL1        0.0724
     33 C          -3.3278    4.3356   20.9001 C.3     1  UNL1        0.0277
     34 C          -3.5059    4.1705   22.3804 C.ar    1  UNL1       -0.0220
     35 C          -4.7042    3.4439   22.9152 C.ar    1  UNL1       -0.0020
     36 C          -4.8823    3.2787   24.3954 C.ar    1  UNL1        0.0293
     37 C          -3.8620    3.8401   25.3408 C.ar    1  UNL1        0.1401
     38 F          -4.0400    3.6750   26.8210 F       1  UNL1       -0.2042
     39 C          -2.6636    4.5667   24.8059 C.ar    1  UNL1        0.0293
     40 C          -2.4855    4.7318   23.3258 C.ar    1  UNL1       -0.0020
@<TRIPOS>BOND
     1    24    25    1
     2    25     1    1
     3     1     2    2
     4     1     3   am
     5     3     4    1
     6     4     5    1
     7     5     6    1
     8     6     9    1
     9     9    10   am
    10    10    11    2
    11    10    12   am
    12    12    15    1
    13    15    16   ar
    14    16    17   ar
    15    17    18    1
    16    17    19   ar
    17    19    21    1
    18    21    22    1
    19    21    23    2
    20    19    20   ar
    21     6     7    1
    22     7    26    1
    23    26    27    1
    24    27    28    1
    25    28    29    1
    26    29    30    1
    27    30    31    1
    28    31    33    1
    29    33    34    1
    30    34    35   ar
    31    35    36   ar
    32    36    37   ar
    33    37    38    1
    34    37    39   ar
    35    39    40   ar
    36    31    32    1
    37     7     8    1
    38     8     3    1
    39    20    15   ar
    40    32    27    1
    41    40    34   ar
    42     9    13    1
    43    12    14    1
@<TRIPOS>MOLECULE
*****
 40 43 0 0 0
SMALL
GASTEIGER

@<TRIPOS>ATOM
      1 C          -4.6965    3.6046   18.3810 C.2     1  UNL1        0.2256
      2 O          -4.1287    3.5282   16.9948 O.2     1  UNL1       -0.2749
      3 N          -3.8035    3.9346   19.5402 N.am    1  UNL1       -0.2794
      4 C          -4.3714    4.0110   20.9264 C.3     1  UNL1        0.0951
      5 C          -3.4784    4.3410   22.0856 C.3     1  UNL1        0.0412
      6 C          -2.0175    4.5944   21.8586 C.3     1  UNL1        0.0777
      7 C          -1.4497    4.5179   20.4724 C.3     1  UNL1        0.0539
      8 C          -2.3427    4.1880   19.3132 C.3     1  UNL1        0.0964
      9 N          -1.1245    4.9243   23.0178 N.am    1  UNL1       -0.2901
     10 C          -0.8108    3.8770   24.0447 C.2     1  UNL1        0.3058
     11 O          -1.3901    2.4996   23.9125 O.2     1  UNL1       -0.2524
     12 N           0.0822    4.2069   25.2039 N.am    1  UNL1       -0.2485
     13 H          -0.7443    5.8283   23.1046 H       1  UNL1        0.1509
     14 H           0.4624    5.1109   25.2907 H       1  UNL1        0.1583
     15 C           0.3959    3.1595   26.2308 C.ar    1  UNL1        0.1664
     16 N           1.6863    2.4050   26.3549 N.ar    1  UNL1       -0.2282
     17 C           1.5622    1.4619   27.5147 C.ar    1  UNL1        0.0701
     18 C           2.6196    0.5136   27.9972 C.3     1  UNL1        0.0528
     19 C           0.1949    1.6335   28.1075 C.ar    1  UNL1        0.0803
     20 S          -0.5258    2.6827   27.3139 S.2     1  UNL1       -0.0488
     21 C          -0.3549    0.8871   29.2866 C.2     1  UNL1        0.1807
     22 C          -1.4041   -0.1658   29.0849 C.3     1  UNL1        0.0779
     23 O           0.1445    1.1934   30.6675 O.2     1  UNL1       -0.2908
     24 C          -7.1031    4.5048   18.7658 C.3     1  UNL1        0.0101
     25 C          -6.1574    3.3512   18.6081 C.3     1  UNL1        0.0853
     26 C           0.0113    4.7714   20.2453 C.3     1  UNL1        0.0754
     27 N           0.8948    3.6679   19.7435 N.3     1  UNL1       -0.2726
     28 C           2.0481    3.9836   18.8379 C.3     1  UNL1        0.0721
     29 C           2.9316    2.8801   18.3361 C.3     1  UNL1        0.0174
     30 C           2.6618    1.4610   18.7400 C.3     1  UNL1        0.0031
     31 C           1.5085    1.1452   19.6457 C.3     1  UNL1        0.0204
     32 C           0.6250    2.2487   20.1474 C.3     1  UNL1        0.0724
     33 C           1.2387   -0.2739   20.0496 C.3     1  UNL1        0.0277
     34 C           2.3435   -1.1153   20.6166 C.ar    1  UNL1       -0.0220
     35 C           3.0295   -2.1328   19.7541 C.ar    1  UNL1       -0.0020
     36 C           4.1343   -2.9742   20.3211 C.ar    1  UNL1        0.0293
     37 C           4.5530   -2.7981   21.7506 C.ar    1  UNL1        0.1401
     38 F           5.6578   -3.6395   22.3177 F       1  UNL1       -0.2042
     39 C           3.8669   -1.7806   22.6132 C.ar    1  UNL1        0.0293
     40 C           2.7622   -0.9392   22.0462 C.ar    1  UNL1       -0.0020
@<TRIPOS>BOND
     1    24    25    1
     2    25     1    1
     3     1     2    2
     4     1     3   am
     5     3     4    1
     6     4     5    1
     7     5     6    1
     8     6     9    1
     9     9    10   am
    10    10    11    2
    11    10    12   am
    12    12    15    1
    13    15    16   ar
    14    16    17   ar
    15    17    18    1
    16    17    19   ar
    17    19    21    1
    18    21    22    1
    19    21    23    2
    20    19    20   ar
    21     6     7    1
    22     7    26    1
    23    26    27    1
    24    27    28    1
    25    28    29    1
    26    29    30    1
    27    30    31    1
    28    31    33    1
    29    33    34    1
    30    34    35   ar
    31    35    36   ar
    32    36    37   ar
    33    37    38    1
    34    37    39   ar
    35    39    40   ar
    36    31    32    1
    37     7     8    1
    38     8     3    1
    39    20    15   ar
    40    32    27    1
    41    40    34   ar
    42     9    13    1
    43    12    14    1
