@<TRIPOS>MOLECULE
*****
 29 33 0 0 0
SMALL
GASTEIGER

@<TRIPOS>ATOM
      1 C           6.7895   -4.4286   23.7840 C.ar    1  UNL1        0.1845
      2 N           7.6939   -5.1724   22.8465 N.ar    1  UNL1       -0.1274
      3 N           7.3672   -4.7408   21.4475 N.ar    1  UNL1       -0.1316
      4 C           6.2610   -3.7303   21.5205 C.ar    1  UNL1        0.1615
      5 N           5.9040   -3.5374   22.9645 N.ar    1  UNL1       -0.2944
      6 C           4.8187   -2.5751   23.3467 C.3     1  UNL1        0.1302
      7 C           4.0904   -1.8057   22.2847 C.3     1  UNL1        0.1186
      8 N           4.4474   -1.9987   20.8407 N.am    1  UNL1       -0.2688
      9 C           3.7191   -1.2293   19.7788 C.2     1  UNL1        0.2493
     10 O           4.0761   -1.4223   18.3347 O.2     1  UNL1       -0.2699
     11 C           5.5328   -2.9610   20.4586 C.3     1  UNL1        0.1343
     12 C           5.8898   -3.1540   19.0145 C.3     1  UNL1        0.0298
     13 C           6.5212   -3.2366   28.9209 C.3     1  UNL1        0.0594
     14 C           6.6502   -4.0061   27.6399 C.ar    1  UNL1        0.0887
     15 N           6.6044   -3.4288   26.2561 N.ar    1  UNL1       -0.2396
     16 C           6.7736   -4.5540   25.2787 C.ar    1  UNL1        0.1237
     17 C           6.9239   -5.8267   26.0583 C.ar    1  UNL1        0.0588
     18 S           6.8477   -5.4880   27.5176 S.2     1  UNL1       -0.0701
     19 C           2.6338   -0.2670   20.1609 C.ar    1  UNL1        0.0536
     20 C           2.9747    1.1567   20.4875 C.ar    1  UNL1        0.0045
     21 C           1.8893    2.1191   20.8697 C.ar    1  UNL1        0.0006
     22 C           0.4631    1.6576   20.9252 C.ar    1  UNL1        0.0060
     23 C           0.1223    0.2338   20.5986 C.ar    1  UNL1        0.0006
     24 C           1.2076   -0.7285   20.2165 C.ar    1  UNL1        0.0045
     25 C          -0.6222    2.6199   21.3074 C.ar    1  UNL1        0.0295
     26 C          -0.8505    3.1940   22.6742 C.ar    1  UNL1        0.0070
     27 C          -2.0392    4.1059   22.6014 C.ar    1  UNL1        0.0075
     28 C          -2.5457    4.0954   21.1894 C.ar    1  UNL1        0.0354
     29 S          -1.6698    3.1770   20.3897 S.2     1  UNL1       -0.0864
@<TRIPOS>BOND
     1    13    14    1
     2    14    15   ar
     3    15    16   ar
     4    16     1    1
     5     1     2   ar
     6     2     3   ar
     7     3     4   ar
     8     4     5   ar
     9     5     6    1
    10     6     7    1
    11     7     8    1
    12     8     9   am
    13     9    10    2
    14     9    19    1
    15    19    20   ar
    16    20    21   ar
    17    21    22   ar
    18    22    25    1
    19    25    26   ar
    20    26    27   ar
    21    27    28   ar
    22    28    29   ar
    23    22    23   ar
    24    23    24   ar
    25     8    11    1
    26    11    12    1
    27    16    17   ar
    28    17    18   ar
    29    18    14   ar
    30     5     1   ar
    31    24    19   ar
    32    11     4    1
    33    29    25   ar
@<TRIPOS>MOLECULE
*****
 29 33 0 0 0
SMALL
GASTEIGER

@<TRIPOS>ATOM
      1 C           1.1542    4.7096   34.7465 C.ar    1  UNL1        0.1845
      2 N           1.0945    5.2360   36.1498 N.ar    1  UNL1       -0.1274
      3 N           1.9501    4.3558   37.0118 N.ar    1  UNL1       -0.1316
      4 C           2.5386    3.2853   36.1413 C.ar    1  UNL1        0.1615
      5 N           2.0467    3.5040   34.7412 N.ar    1  UNL1       -0.2944
      6 C           2.4750    2.5771   33.6424 C.3     1  UNL1        0.1302
      7 C           3.3952    1.4314   33.9437 C.3     1  UNL1        0.1186
      8 N           3.8872    1.2128   35.3438 N.am    1  UNL1       -0.2688
      9 C           4.8074    0.0672   35.6451 C.2     1  UNL1        0.2493
     10 O           5.2993   -0.1515   37.0451 O.2     1  UNL1       -0.2699
     11 C           3.4588    2.1398   36.4426 C.3     1  UNL1        0.1343
     12 C           3.9507    1.9211   37.8426 C.3     1  UNL1        0.0298
     13 C          -0.1521    5.9073   29.7726 C.3     1  UNL1        0.0594
     14 C          -0.1547    5.8379   31.2709 C.ar    1  UNL1        0.0887
     15 N           0.8218    5.0792   32.1201 N.ar    1  UNL1       -0.2396
     16 C           0.4458    5.2873   33.5572 C.ar    1  UNL1        0.1237
     17 C          -0.7630    6.1746   33.5963 C.ar    1  UNL1        0.0588
     18 S          -1.1341    6.5148   32.1833 S.2     1  UNL1       -0.0701
     19 C           5.2357   -0.8597   34.5463 C.ar    1  UNL1        0.0536
     20 C           6.6098   -0.7399   33.9570 C.ar    1  UNL1        0.0045
     21 C           7.0381   -1.6668   32.8581 C.ar    1  UNL1        0.0006
     22 C           6.0922   -2.7136   32.3487 C.ar    1  UNL1        0.0060
     23 C           4.7181   -2.8334   32.9380 C.ar    1  UNL1        0.0006
     24 C           4.2898   -1.9065   34.0368 C.ar    1  UNL1        0.0045
     25 C           6.5205   -3.6406   31.2498 C.ar    1  UNL1        0.0295
     26 C           6.9205   -5.0769   31.4138 C.ar    1  UNL1        0.0070
     27 C           7.2712   -5.6179   30.0594 C.ar    1  UNL1        0.0075
     28 C           7.0879   -4.5159   29.0584 C.ar    1  UNL1        0.0354
     29 S           6.6240   -3.2938   29.7941 S.2     1  UNL1       -0.0864
@<TRIPOS>BOND
     1    13    14    1
     2    14    15   ar
     3    15    16   ar
     4    16     1    1
     5     1     2   ar
     6     2     3   ar
     7     3     4   ar
     8     4     5   ar
     9     5     6    1
    10     6     7    1
    11     7     8    1
    12     8     9   am
    13     9    10    2
    14     9    19    1
    15    19    20   ar
    16    20    21   ar
    17    21    22   ar
    18    22    25    1
    19    25    26   ar
    20    26    27   ar
    21    27    28   ar
    22    28    29   ar
    23    22    23   ar
    24    23    24   ar
    25     8    11    1
    26    11    12    1
    27    16    17   ar
    28    17    18   ar
    29    18    14   ar
    30     5     1   ar
    31    24    19   ar
    32    11     4    1
    33    29    25   ar
@<TRIPOS>MOLECULE
*****
 29 33 0 0 0
SMALL
GASTEIGER

@<TRIPOS>ATOM
      1 C           8.1680   -5.1237   27.6553 C.ar    1  UNL1        0.1845
      2 N           9.2624   -6.1471   27.5858 N.ar    1  UNL1       -0.1274
      3 N           9.5215   -6.4510   26.1399 N.ar    1  UNL1       -0.1316
      4 C           8.5872   -5.6155   25.3159 C.ar    1  UNL1        0.1615
      5 N           7.7506   -4.7951   26.2525 N.ar    1  UNL1       -0.2944
      6 C           6.7170   -3.8550   25.7070 C.3     1  UNL1        0.1302
      7 C           6.5199   -3.7351   24.2248 C.3     1  UNL1        0.1186
      8 N           7.3564   -4.5554   23.2882 N.am    1  UNL1       -0.2688
      9 C           7.1593   -4.4356   21.8061 C.2     1  UNL1        0.2493
     10 O           7.9959   -5.2560   20.8695 O.2     1  UNL1       -0.2699
     11 C           8.3901   -5.4956   23.8338 C.3     1  UNL1        0.1343
     12 C           9.2267   -6.3160   22.8972 C.3     1  UNL1        0.0298
     13 C           5.9297   -1.7558   31.0506 C.3     1  UNL1        0.0594
     14 C           6.5631   -2.9845   30.4685 C.ar    1  UNL1        0.0887
     15 N           7.0229   -3.1521   29.0506 N.ar    1  UNL1       -0.2396
     16 C           7.5919   -4.5326   28.9079 C.ar    1  UNL1        0.1237
     17 C           7.4838   -5.2183   30.2376 C.ar    1  UNL1        0.0588
     18 S           6.8479   -4.2616   31.2021 S.2     1  UNL1       -0.0701
     19 C           6.1257   -3.4955   21.2606 C.ar    1  UNL1        0.0536
     20 C           4.7197   -3.9708   21.0431 C.ar    1  UNL1        0.0045
     21 C           3.6860   -3.0306   20.4975 C.ar    1  UNL1        0.0006
     22 C           4.0583   -1.6151   20.1695 C.ar    1  UNL1        0.0060
     23 C           5.4643   -1.1397   20.3870 C.ar    1  UNL1        0.0006
     24 C           6.4980   -2.0799   20.9325 C.ar    1  UNL1        0.0045
     25 C           3.0247   -0.6748   19.6239 C.ar    1  UNL1        0.0295
     26 C           1.5864   -0.6056   20.0440 C.ar    1  UNL1        0.0070
     27 C           0.9207    0.4732   19.2423 C.ar    1  UNL1        0.0075
     28 C           1.9476    1.0708   18.3266 C.ar    1  UNL1        0.0354
     29 S           3.2480    0.3612   18.5625 S.2     1  UNL1       -0.0864
@<TRIPOS>BOND
     1    13    14    1
     2    14    15   ar
     3    15    16   ar
     4    16     1    1
     5     1     2   ar
     6     2     3   ar
     7     3     4   ar
     8     4     5   ar
     9     5     6    1
    10     6     7    1
    11     7     8    1
    12     8     9   am
    13     9    10    2
    14     9    19    1
    15    19    20   ar
    16    20    21   ar
    17    21    22   ar
    18    22    25    1
    19    25    26   ar
    20    26    27   ar
    21    27    28   ar
    22    28    29   ar
    23    22    23   ar
    24    23    24   ar
    25     8    11    1
    26    11    12    1
    27    16    17   ar
    28    17    18   ar
    29    18    14   ar
    30     5     1   ar
    31    24    19   ar
    32    11     4    1
    33    29    25   ar
@<TRIPOS>MOLECULE
*****
 29 33 0 0 0
SMALL
GASTEIGER

@<TRIPOS>ATOM
      1 C          -0.3843    2.9439   20.5895 C.ar    1  UNL1        0.1845
      2 N          -1.6377    3.5725   20.0567 N.ar    1  UNL1       -0.1274
      3 N          -2.5441    3.8553   21.2180 N.ar    1  UNL1       -0.1316
      4 C          -1.8509    3.4014   22.4684 C.ar    1  UNL1        0.1615
      5 N          -0.5160    2.8382   22.0800 N.ar    1  UNL1       -0.2944
      6 C           0.4070    2.3018   23.1336 C.3     1  UNL1        0.1302
      7 C          -0.0048    2.3287   24.5758 C.3     1  UNL1        0.1186
      8 N          -1.3396    2.8920   24.9642 N.am    1  UNL1       -0.2688
      9 C          -1.7514    2.9189   26.4063 C.2     1  UNL1        0.2493
     10 O          -3.0863    3.4821   26.7947 O.2     1  UNL1       -0.2699
     11 C          -2.2627    3.4283   23.9105 C.3     1  UNL1        0.1343
     12 C          -3.5976    3.9916   24.2989 C.3     1  UNL1        0.0298
     13 C           2.9433   -0.0540   17.7931 C.3     1  UNL1        0.0594
     14 C           2.3236    1.1210   18.4894 C.ar    1  UNL1        0.0887
     15 N           1.0275    1.1155   19.2446 N.ar    1  UNL1       -0.2396
     16 C           0.7941    2.4991   19.7748 C.ar    1  UNL1        0.1237
     17 C           1.9457    3.3598   19.3473 C.ar    1  UNL1        0.0588
     18 S           2.8911    2.5082   18.5529 S.2     1  UNL1       -0.0701
     19 C          -0.8284    2.3825   27.4599 C.ar    1  UNL1        0.0536
     20 C           0.2084    3.2757   28.0741 C.ar    1  UNL1        0.0045
     21 C           1.1315    2.7393   29.1278 C.ar    1  UNL1        0.0006
     22 C           1.0177    1.3097   29.5673 C.ar    1  UNL1        0.0060
     23 C          -0.0191    0.4164   28.9532 C.ar    1  UNL1        0.0006
     24 C          -0.9421    0.9528   27.8995 C.ar    1  UNL1        0.0045
     25 C           1.9408    0.7732   30.6210 C.ar    1  UNL1        0.0295
     26 C           2.2242    1.4071   31.9506 C.ar    1  UNL1        0.0070
     27 C           3.2011    0.5344   32.6814 C.ar    1  UNL1        0.0075
     28 C           3.5214   -0.6390   31.8034 C.ar    1  UNL1        0.0354
     29 S           2.7425   -0.4913   30.5300 S.2     1  UNL1       -0.0864
@<TRIPOS>BOND
     1    13    14    1
     2    14    15   ar
     3    15    16   ar
     4    16     1    1
     5     1     2   ar
     6     2     3   ar
     7     3     4   ar
     8     4     5   ar
     9     5     6    1
    10     6     7    1
    11     7     8    1
    12     8     9   am
    13     9    10    2
    14     9    19    1
    15    19    20   ar
    16    20    21   ar
    17    21    22   ar
    18    22    25    1
    19    25    26   ar
    20    26    27   ar
    21    27    28   ar
    22    28    29   ar
    23    22    23   ar
    24    23    24   ar
    25     8    11    1
    26    11    12    1
    27    16    17   ar
    28    17    18   ar
    29    18    14   ar
    30     5     1   ar
    31    24    19   ar
    32    11     4    1
    33    29    25   ar
@<TRIPOS>MOLECULE
*****
 29 33 0 0 0
SMALL
GASTEIGER

@<TRIPOS>ATOM
      1 C           2.2688   -0.3906   19.8217 C.ar    1  UNL1        0.1845
      2 N           1.5057    0.2205   18.6840 N.ar    1  UNL1       -0.1274
      3 N           0.5602    1.2365   19.2529 N.ar    1  UNL1       -0.1316
      4 C           0.7389    1.2535   20.7421 C.ar    1  UNL1        0.1615
      5 N           1.7950    0.2479   21.0937 N.ar    1  UNL1       -0.2944
      6 C           2.1886    0.0434   22.5266 C.3     1  UNL1        0.1302
      7 C           1.5262    0.8446   23.6080 C.3     1  UNL1        0.1186
      8 N           0.4702    1.8502   23.2564 N.am    1  UNL1       -0.2688
      9 C          -0.1922    2.6514   24.3378 C.2     1  UNL1        0.2493
     10 O          -1.2482    3.6570   23.9862 O.2     1  UNL1       -0.2699
     11 C           0.0766    2.0546   21.8235 C.3     1  UNL1        0.1343
     12 C          -0.9794    3.0603   21.4719 C.3     1  UNL1        0.0298
     13 C           4.6619   -5.0134   18.9370 C.3     1  UNL1        0.0594
     14 C           4.4211   -3.5784   19.3008 C.ar    1  UNL1        0.0887
     15 N           3.0993   -2.8699   19.2667 N.ar    1  UNL1       -0.2396
     16 C           3.3211   -1.4534   19.7075 C.ar    1  UNL1        0.1237
     17 C           4.7799   -1.2863   20.0141 C.ar    1  UNL1        0.0588
     18 S           5.4597   -2.5996   19.7628 S.2     1  UNL1       -0.0701
     19 C           0.2015    2.4470   25.7706 C.ar    1  UNL1        0.0536
     20 C           1.2943    3.2785   26.3742 C.ar    1  UNL1        0.0045
     21 C           1.6879    3.0740   27.8072 C.ar    1  UNL1        0.0006
     22 C           0.9887    2.0381   28.6365 C.ar    1  UNL1        0.0060
     23 C          -0.1041    1.2066   28.0330 C.ar    1  UNL1        0.0006
     24 C          -0.4978    1.4110   26.6001 C.ar    1  UNL1        0.0045
     25 C           1.3823    1.8336   30.0695 C.ar    1  UNL1        0.0295
     26 C           0.7814    2.5265   31.2564 C.ar    1  UNL1        0.0070
     27 C           1.4737    2.0214   32.4875 C.ar    1  UNL1        0.0075
     28 C           2.5025    1.0164   32.0615 C.ar    1  UNL1        0.0354
     29 S           2.4461    0.9003   30.5670 S.2     1  UNL1       -0.0864
@<TRIPOS>BOND
     1    13    14    1
     2    14    15   ar
     3    15    16   ar
     4    16     1    1
     5     1     2   ar
     6     2     3   ar
     7     3     4   ar
     8     4     5   ar
     9     5     6    1
    10     6     7    1
    11     7     8    1
    12     8     9   am
    13     9    10    2
    14     9    19    1
    15    19    20   ar
    16    20    21   ar
    17    21    22   ar
    18    22    25    1
    19    25    26   ar
    20    26    27   ar
    21    27    28   ar
    22    28    29   ar
    23    22    23   ar
    24    23    24   ar
    25     8    11    1
    26    11    12    1
    27    16    17   ar
    28    17    18   ar
    29    18    14   ar
    30     5     1   ar
    31    24    19   ar
    32    11     4    1
    33    29    25   ar
@<TRIPOS>MOLECULE
*****
 29 33 0 0 0
SMALL
GASTEIGER

@<TRIPOS>ATOM
      1 C           6.8779   -3.9559   29.7836 C.ar    1  UNL1        0.1845
      2 N           7.6211   -5.1934   30.1911 N.ar    1  UNL1       -0.1274
      3 N           7.9864   -5.9458   28.9460 N.ar    1  UNL1       -0.1316
      4 C           7.4689   -5.1734   27.7689 C.ar    1  UNL1        0.1615
      5 N           6.7838   -3.9435   28.2866 N.ar    1  UNL1       -0.2944
      6 C           6.1627   -2.9712   27.3280 C.3     1  UNL1        0.1302
      7 C           6.2268   -3.2288   25.8516 C.3     1  UNL1        0.1186
      8 N           6.9119   -4.4587   25.3339 N.am    1  UNL1       -0.2688
      9 C           6.9760   -4.7163   23.8576 C.2     1  UNL1        0.2493
     10 O           7.6611   -5.9461   23.3399 O.2     1  UNL1       -0.2699
     11 C           7.5330   -5.4310   26.2926 C.3     1  UNL1        0.1343
     12 C           8.2181   -6.6609   25.7749 C.3     1  UNL1        0.0298
     13 C           4.6665   -1.6268   33.9748 C.3     1  UNL1        0.0594
     14 C           5.3092   -1.8431   32.6369 C.ar    1  UNL1        0.0887
     15 N           5.7314   -3.1639   32.0647 N.ar    1  UNL1       -0.2396
     16 C           6.3257   -2.9137   30.7104 C.ar    1  UNL1        0.1237
     17 C           6.2708   -1.4383   30.4454 C.ar    1  UNL1        0.0588
     18 S           5.6426   -0.7766   31.6361 S.2     1  UNL1       -0.0701
     19 C           6.3550   -3.7440   22.8990 C.ar    1  UNL1        0.0536
     20 C           7.1832   -2.6432   22.3054 C.ar    1  UNL1        0.0045
     21 C           6.5621   -1.6709   21.3467 C.ar    1  UNL1        0.0006
     22 C           5.1129   -1.7994   20.9818 C.ar    1  UNL1        0.0060
     23 C           4.2847   -2.9002   21.5755 C.ar    1  UNL1        0.0006
     24 C           4.9057   -3.8724   22.5340 C.ar    1  UNL1        0.0045
     25 C           4.4918   -0.8271   20.0232 C.ar    1  UNL1        0.0295
     26 C           3.1626   -0.9836   19.3459 C.ar    1  UNL1        0.0070
     27 C           2.9402    0.2191   18.4777 C.ar    1  UNL1        0.0075
     28 C           4.1320    1.1191   18.6183 C.ar    1  UNL1        0.0354
     29 S           5.0910    0.4725   19.5735 S.2     1  UNL1       -0.0864
@<TRIPOS>BOND
     1    13    14    1
     2    14    15   ar
     3    15    16   ar
     4    16     1    1
     5     1     2   ar
     6     2     3   ar
     7     3     4   ar
     8     4     5   ar
     9     5     6    1
    10     6     7    1
    11     7     8    1
    12     8     9   am
    13     9    10    2
    14     9    19    1
    15    19    20   ar
    16    20    21   ar
    17    21    22   ar
    18    22    25    1
    19    25    26   ar
    20    26    27   ar
    21    27    28   ar
    22    28    29   ar
    23    22    23   ar
    24    23    24   ar
    25     8    11    1
    26    11    12    1
    27    16    17   ar
    28    17    18   ar
    29    18    14   ar
    30     5     1   ar
    31    24    19   ar
    32    11     4    1
    33    29    25   ar
@<TRIPOS>MOLECULE
*****
 29 33 0 0 0
SMALL
GASTEIGER

@<TRIPOS>ATOM
      1 C           4.4615   -1.7093   19.4101 C.ar    1  UNL1        0.1845
      2 N           5.2212   -2.0628   18.1660 N.ar    1  UNL1       -0.1274
      3 N           6.4413   -2.8352   18.5718 N.ar    1  UNL1       -0.1316
      4 C           6.4357   -2.9591   20.0667 C.ar    1  UNL1        0.1615
      5 N           5.2120   -2.2632   20.5848 N.ar    1  UNL1       -0.2944
      6 C           4.9394   -2.2239   22.0592 C.3     1  UNL1        0.1302
      7 C           5.8903   -2.8804   23.0157 C.3     1  UNL1        0.1186
      8 N           7.1140   -3.5763   22.4975 N.am    1  UNL1       -0.2688
      9 C           8.0649   -4.2329   23.4538 C.2     1  UNL1        0.2493
     10 O           9.2886   -4.9287   22.9357 O.2     1  UNL1       -0.2699
     11 C           7.3866   -3.6156   21.0230 C.3     1  UNL1        0.1343
     12 C           8.6103   -4.3115   20.5049 C.3     1  UNL1        0.0298
     13 C           0.6885    1.8462   18.4080 C.3     1  UNL1        0.0594
     14 C           1.4425    0.6970   19.0086 C.ar    1  UNL1        0.0887
     15 N           2.8145    0.2387   18.6115 N.ar    1  UNL1       -0.2396
     16 C           3.1767   -0.9373   19.4692 C.ar    1  UNL1        0.1237
     17 C           2.0287   -1.2059   20.3965 C.ar    1  UNL1        0.0588
     18 S           0.9569   -0.1959   20.1119 S.2     1  UNL1       -0.0701
     19 C           7.7923   -4.1935   24.9283 C.ar    1  UNL1        0.0536
     20 C           6.9892   -5.2848   25.5719 C.ar    1  UNL1        0.0045
     21 C           6.7165   -5.2454   27.0464 C.ar    1  UNL1        0.0006
     22 C           7.2469   -4.1148   27.8773 C.ar    1  UNL1        0.0060
     23 C           8.0500   -3.0235   27.2337 C.ar    1  UNL1        0.0006
     24 C           8.3227   -3.0629   25.7592 C.ar    1  UNL1        0.0045
     25 C           6.9742   -4.0754   29.3518 C.ar    1  UNL1        0.0295
     26 C           6.4538   -2.8975   30.1211 C.ar    1  UNL1        0.0070
     27 C           6.3320   -3.3011   31.5606 C.ar    1  UNL1        0.0075
     28 C           6.7773   -4.7285   31.6811 C.ar    1  UNL1        0.0354
     29 S           7.1742   -5.2070   30.3159 S.2     1  UNL1       -0.0864
@<TRIPOS>BOND
     1    13    14    1
     2    14    15   ar
     3    15    16   ar
     4    16     1    1
     5     1     2   ar
     6     2     3   ar
     7     3     4   ar
     8     4     5   ar
     9     5     6    1
    10     6     7    1
    11     7     8    1
    12     8     9   am
    13     9    10    2
    14     9    19    1
    15    19    20   ar
    16    20    21   ar
    17    21    22   ar
    18    22    25    1
    19    25    26   ar
    20    26    27   ar
    21    27    28   ar
    22    28    29   ar
    23    22    23   ar
    24    23    24   ar
    25     8    11    1
    26    11    12    1
    27    16    17   ar
    28    17    18   ar
    29    18    14   ar
    30     5     1   ar
    31    24    19   ar
    32    11     4    1
    33    29    25   ar
@<TRIPOS>MOLECULE
*****
 29 33 0 0 0
SMALL
GASTEIGER

@<TRIPOS>ATOM
      1 C         -14.0983   -5.4238   19.2692 C.ar    1  UNL1        0.1845
      2 N         -15.1579   -6.4836   19.2059 N.ar    1  UNL1       -0.1274
      3 N         -16.4892   -5.8200   19.3989 N.ar    1  UNL1       -0.1316
      4 C         -16.2524   -4.3501   19.5816 C.ar    1  UNL1        0.1615
      5 N         -14.7747   -4.1053   19.5014 N.ar    1  UNL1       -0.2944
      6 C         -14.2359   -2.7133   19.6502 C.3     1  UNL1        0.1302
      7 C         -15.1749   -1.5661   19.8791 C.3     1  UNL1        0.1186
      8 N         -16.6526   -1.8110   19.9593 N.am    1  UNL1       -0.2688
      9 C         -17.5916   -0.6639   20.1882 C.2     1  UNL1        0.2493
     10 O         -19.0693   -0.9088   20.2684 O.2     1  UNL1       -0.2699
     11 C         -17.1913   -3.2031   19.8105 C.3     1  UNL1        0.1343
     12 C         -18.6690   -3.4479   19.8906 C.3     1  UNL1        0.0298
     13 C          -9.4001   -7.7725   18.7291 C.3     1  UNL1        0.0594
     14 C         -10.4619   -6.7235   18.8773 C.ar    1  UNL1        0.0887
     15 N         -11.9364   -6.9721   18.9971 N.ar    1  UNL1       -0.2396
     16 C         -12.6215   -5.6439   19.1256 C.ar    1  UNL1        0.1237
     17 C         -11.5705   -4.5744   19.0853 C.ar    1  UNL1        0.0588
     18 S         -10.2359   -5.2416   18.9318 S.2     1  UNL1       -0.0701
     19 C         -17.0529    0.7280   20.3370 C.ar    1  UNL1        0.0536
     20 C         -17.3082    1.5004   21.5972 C.ar    1  UNL1        0.0045
     21 C         -16.7695    2.8924   21.7460 C.ar    1  UNL1        0.0006
     22 C         -15.9754    3.5120   20.6345 C.ar    1  UNL1        0.0060
     23 C         -15.7200    2.7397   19.3742 C.ar    1  UNL1        0.0006
     24 C         -16.2587    1.3477   19.2254 C.ar    1  UNL1        0.0045
     25 C         -15.4366    4.9041   20.7832 C.ar    1  UNL1        0.0295
     26 C         -14.5290    5.3861   21.8758 C.ar    1  UNL1        0.0070
     27 C         -14.2423    6.8384   21.6333 C.ar    1  UNL1        0.0075
     28 C         -14.9728    7.2539   20.3908 C.ar    1  UNL1        0.0354
     29 S         -15.7110    6.0583   19.8654 S.2     1  UNL1       -0.0864
@<TRIPOS>BOND
     1    13    14    1
     2    14    15   ar
     3    15    16   ar
     4    16     1    1
     5     1     2   ar
     6     2     3   ar
     7     3     4   ar
     8     4     5   ar
     9     5     6    1
    10     6     7    1
    11     7     8    1
    12     8     9   am
    13     9    10    2
    14     9    19    1
    15    19    20   ar
    16    20    21   ar
    17    21    22   ar
    18    22    25    1
    19    25    26   ar
    20    26    27   ar
    21    27    28   ar
    22    28    29   ar
    23    22    23   ar
    24    23    24   ar
    25     8    11    1
    26    11    12    1
    27    16    17   ar
    28    17    18   ar
    29    18    14   ar
    30     5     1   ar
    31    24    19   ar
    32    11     4    1
    33    29    25   ar
@<TRIPOS>MOLECULE
*****
 29 33 0 0 0
SMALL
GASTEIGER

@<TRIPOS>ATOM
      1 C           6.1738   -3.0804   25.5008 C.ar    1  UNL1        0.1845
      2 N           6.7134   -4.4087   25.0598 N.ar    1  UNL1       -0.1274
      3 N           7.0670   -5.1957   26.2868 N.ar    1  UNL1       -0.1316
      4 C           6.7459   -4.3539   27.4861 C.ar    1  UNL1        0.1615
      5 N           6.1939   -3.0465   27.0003 N.ar    1  UNL1       -0.2944
      6 C           5.7808   -1.9942   27.9861 C.3     1  UNL1        0.1302
      7 C           5.9199   -2.2491   29.4578 C.3     1  UNL1        0.1186
      8 N           6.4719   -3.5565   29.9436 N.am    1  UNL1       -0.2688
      9 C           6.6109   -3.8115   31.4151 C.2     1  UNL1        0.2493
     10 O           7.1630   -5.1189   31.9009 O.2     1  UNL1       -0.2699
     11 C           6.8849   -4.6089   28.9577 C.3     1  UNL1        0.1343
     12 C           7.4370   -5.9163   29.4434 C.3     1  UNL1        0.0298
     13 C           3.0329    0.2294   22.8436 C.3     1  UNL1        0.0594
     14 C           4.2539   -0.4578   23.3790 C.ar    1  UNL1        0.0887
     15 N           4.2673   -1.6122   24.3369 N.ar    1  UNL1       -0.2396
     16 C           5.6976   -1.9792   24.6004 C.ar    1  UNL1        0.1237
     17 C           6.5682   -1.0519   23.8054 C.ar    1  UNL1        0.0588
     18 S           5.6760   -0.1116   23.0506 S.2     1  UNL1       -0.0701
     19 C           6.1979   -2.7591   32.4009 C.ar    1  UNL1        0.0536
     20 C           4.8080   -2.7640   32.9650 C.ar    1  UNL1        0.0045
     21 C           4.3950   -1.7116   33.9509 C.ar    1  UNL1        0.0006
     22 C           5.3718   -0.6543   34.3726 C.ar    1  UNL1        0.0060
     23 C           6.7617   -0.6494   33.8085 C.ar    1  UNL1        0.0006
     24 C           7.1748   -1.7018   32.8227 C.ar    1  UNL1        0.0045
     25 C           4.9588    0.3982   35.3585 C.ar    1  UNL1        0.0295
     26 C           4.8216    0.2126   36.8406 C.ar    1  UNL1        0.0070
     27 C           4.3885    1.5207   37.4333 C.ar    1  UNL1        0.0075
     28 C           4.2581    2.5147   36.3175 C.ar    1  UNL1        0.0354
     29 S           4.6106    1.8209   35.0351 S.2     1  UNL1       -0.0864
@<TRIPOS>BOND
     1    13    14    1
     2    14    15   ar
     3    15    16   ar
     4    16     1    1
     5     1     2   ar
     6     2     3   ar
     7     3     4   ar
     8     4     5   ar
     9     5     6    1
    10     6     7    1
    11     7     8    1
    12     8     9   am
    13     9    10    2
    14     9    19    1
    15    19    20   ar
    16    20    21   ar
    17    21    22   ar
    18    22    25    1
    19    25    26   ar
    20    26    27   ar
    21    27    28   ar
    22    28    29   ar
    23    22    23   ar
    24    23    24   ar
    25     8    11    1
    26    11    12    1
    27    16    17   ar
    28    17    18   ar
    29    18    14   ar
    30     5     1   ar
    31    24    19   ar
    32    11     4    1
    33    29    25   ar
