@<TRIPOS>MOLECULE
*****
 44 49 0 0 0
SMALL
GASTEIGER

@<TRIPOS>ATOM
      1 N           3.1114    0.2907   31.5308 N.am    1  UNL1       -0.2222
      2 C           2.4519    0.3937   30.1873 C.2     1  UNL1        0.3219
      3 O           2.7420   -0.4681   28.9944 O.2     1  UNL1       -0.2512
      4 N           1.4515    1.5098   30.2464 N.am    1  UNL1       -0.1907
      5 C           1.4926    2.0966   31.6262 C.2     1  UNL1        0.2529
      6 O           0.6550    3.2367   32.1249 O.2     1  UNL1       -0.2724
      7 C           2.5185    1.3432   32.4201 C.3     1  UNL1        0.1391
      8 C           3.5690    0.5038   33.0847 C.3     1  UNL1        0.0449
      9 C           3.9373    0.7582   34.5163 C.3     1  UNL1        0.0746
     10 N           3.2550    1.8520   35.2833 N.3     1  UNL1       -0.2676
     11 C           2.2045    2.6913   34.6187 C.3     1  UNL1        0.0746
     12 C           1.8362    2.4369   33.1870 C.3     1  UNL1        0.0449
     13 C           6.6795   -1.3852   31.9883 C.ar    1  UNL1        0.2293
     14 C           5.6143   -0.4023   31.6020 C.ar    1  UNL1        0.0924
     15 C           4.1766   -0.6921   31.9170 C.ar    1  UNL1        0.1453
     16 N           3.8043   -1.9648   32.6182 N.ar    1  UNL1       -0.2084
     17 C           4.8694   -2.9477   33.0044 C.ar    1  UNL1        0.2027
     18 N           6.3072   -2.6579   32.6895 N.ar    1  UNL1       -0.1892
     19 C           8.9941   -2.1750   31.1114 C.3     1  UNL1        0.2542
     20 O           8.1172   -1.0955   31.6734 O.3     1  UNL1       -0.4560
     21 C           0.5655    1.9600   29.1229 C.ar    1  UNL1        0.0622
     22 C          -0.4641    1.0261   28.5593 C.ar    1  UNL1        0.0154
     23 C          -1.3501    1.4764   27.4358 C.ar    1  UNL1        0.0013
     24 C          -1.2064    2.8605   26.8759 C.ar    1  UNL1        0.0001
     25 C          -0.1768    3.7945   27.4395 C.ar    1  UNL1        0.0013
     26 C           0.7092    3.3442   28.5630 C.ar    1  UNL1        0.0154
     27 C          -2.0924    3.3108   25.7523 C.ar    1  UNL1       -0.0003
     28 C          -1.5567    3.3707   24.3526 C.ar    1  UNL1        0.0000
     29 C          -2.4427    3.8209   23.2290 C.ar    1  UNL1        0.0008
     30 C          -3.8644    4.2113   23.5054 C.ar    1  UNL1        0.0100
     31 C          -4.4002    4.1514   24.9052 C.ar    1  UNL1       -0.0207
     32 C          -5.8219    4.5418   25.1814 C.3     1  UNL1        0.0311
     33 C          -3.5142    3.7012   26.0286 C.ar    1  UNL1       -0.0042
     34 C          -4.7504    4.6615   22.3819 C.2     1  UNL1        0.0726
     35 O          -5.4692    3.6483   21.5413 O.co2   1  UNL1       -0.5446
     36 O          -4.9176    6.1252   22.0990 O.co2   1  UNL1       -0.5446
     37 C           3.6233    2.1063   36.7150 C.3     1  UNL1        0.1183
     38 C           2.6190    1.8636   37.8023 C.ar    1  UNL1        0.0712
     39 N           2.5504    0.5245   38.4747 N.ar    1  UNL1       -0.2471
     40 C           1.5460    0.2818   39.5621 C.ar    1  UNL1        0.0985
     41 C           0.6101    1.3782   39.9770 C.ar    1  UNL1        0.0203
     42 C           0.6787    2.7173   39.3046 C.ar    1  UNL1       -0.0015
     43 C           1.6831    2.9600   38.2173 C.ar    1  UNL1       -0.0069
     44 C           1.7516    4.2991   37.5448 C.3     1  UNL1        0.0323
@<TRIPOS>UNITY_ATOM_ATTR
35 1
charge -1
@<TRIPOS>BOND
     1    19    20    1
     2    20    13    1
     3    13    14   ar
     4    14    15   ar
     5    15     1    1
     6     1     2   am
     7     2     3    2
     8     2     4   am
     9     4    21    1
    10    21    22   ar
    11    22    23   ar
    12    23    24   ar
    13    24    27    1
    14    27    28   ar
    15    28    29   ar
    16    29    30   ar
    17    30    34    1
    18    34    35   ar
    19    34    36   ar
    20    30    31   ar
    21    31    32    1
    22    31    33   ar
    23    24    25   ar
    24    25    26   ar
    25     4     5   am
    26     5     6    2
    27     5     7    1
    28     7     8    1
    29     8     9    1
    30     9    10    1
    31    10    37    1
    32    37    38    1
    33    38    39   ar
    34    39    40   ar
    35    40    41   ar
    36    41    42   ar
    37    42    43   ar
    38    43    44    1
    39    10    11    1
    40    11    12    1
    41    15    16   ar
    42    16    17   ar
    43    17    18   ar
    44    18    13   ar
    45     7     1    1
    46    43    38   ar
    47    26    21   ar
    48    12     7    1
    49    33    27   ar
@<TRIPOS>MOLECULE
*****
 44 49 0 0 0
SMALL
GASTEIGER

@<TRIPOS>ATOM
      1 N           2.9098    0.8336   31.5123 N.am    1  UNL1       -0.2222
      2 C           2.3624    0.7963   30.1161 C.2     1  UNL1        0.3219
      3 O           2.7572   -0.1710   29.0399 O.2     1  UNL1       -0.2512
      4 N           1.3509    1.8963   29.9853 N.am    1  UNL1       -0.1907
      5 C           1.2732    2.6133   31.3006 C.2     1  UNL1        0.2529
      6 O           0.3875    3.7819   31.6167 O.2     1  UNL1       -0.2724
      7 C           2.2366    1.9565   32.2443 C.3     1  UNL1        0.1391
      8 C           3.2360    1.2023   33.0703 C.3     1  UNL1        0.0449
      9 C           3.4828    1.5988   34.4957 C.3     1  UNL1        0.0746
     10 N           2.7303    2.7496   35.0951 N.3     1  UNL1       -0.2676
     11 C           1.7309    3.5039   34.2691 C.3     1  UNL1        0.0746
     12 C           1.4841    3.1074   32.8437 C.3     1  UNL1        0.0449
     13 C           6.4366   -0.6348   32.5871 C.ar    1  UNL1        0.2293
     14 C           5.3984    0.2888   32.0222 C.ar    1  UNL1        0.0924
     15 C           3.9480   -0.0900   32.0772 C.ar    1  UNL1        0.1453
     16 N           3.5359   -1.3923   32.6970 N.ar    1  UNL1       -0.2084
     17 C           4.5741   -2.3158   33.2619 C.ar    1  UNL1        0.2027
     18 N           6.0245   -1.9371   33.2069 N.ar    1  UNL1       -0.1892
     19 C           8.8995   -1.0522   33.3010 C.3     1  UNL1        0.2542
     20 O           7.8869   -0.2561   32.5322 O.3     1  UNL1       -0.4560
     21 C           0.5567    2.2220   28.7553 C.ar    1  UNL1        0.0622
     22 C           0.4890    3.6358   28.2589 C.ar    1  UNL1        0.0154
     23 C          -0.3053    3.9616   27.0288 C.ar    1  UNL1        0.0013
     24 C          -1.0318    2.8735   26.2952 C.ar    1  UNL1        0.0001
     25 C          -0.9640    1.4595   26.7916 C.ar    1  UNL1        0.0013
     26 C          -0.1698    1.1339   28.0217 C.ar    1  UNL1        0.0154
     27 C          -1.8260    3.1992   25.0651 C.ar    1  UNL1       -0.0003
     28 C          -1.1451    3.2741   23.7307 C.ar    1  UNL1        0.0000
     29 C          -1.9393    3.5998   22.5006 C.ar    1  UNL1        0.0008
     30 C          -3.4145    3.8506   22.6050 C.ar    1  UNL1        0.0100
     31 C          -4.0955    3.7757   23.9394 C.ar    1  UNL1       -0.0207
     32 C          -5.5707    4.0264   24.0438 C.3     1  UNL1        0.0311
     33 C          -3.3013    3.4500   25.1695 C.ar    1  UNL1       -0.0042
     34 C          -4.2088    4.1763   21.3749 C.2     1  UNL1        0.0726
     35 O          -4.8940    3.0811   20.6128 O.co2   1  UNL1       -0.5446
     36 O          -4.3178    5.5974   20.9070 O.co2   1  UNL1       -0.5446
     37 C           2.9772    3.1462   36.5206 C.3     1  UNL1        0.1183
     38 C           2.2034    2.4911   37.6260 C.ar    1  UNL1        0.0712
     39 N           0.9348    3.1162   38.1260 N.ar    1  UNL1       -0.2471
     40 C           0.1609    2.4611   39.2316 C.ar    1  UNL1        0.0985
     41 C           0.6557    1.1810   39.8370 C.ar    1  UNL1        0.0203
     42 C           1.9243    0.5560   39.3370 C.ar    1  UNL1       -0.0015
     43 C           2.6981    1.2110   38.2315 C.ar    1  UNL1       -0.0069
     44 C           3.9667    0.5860   37.7315 C.3     1  UNL1        0.0323
@<TRIPOS>UNITY_ATOM_ATTR
35 1
charge -1
@<TRIPOS>BOND
     1    19    20    1
     2    20    13    1
     3    13    14   ar
     4    14    15   ar
     5    15     1    1
     6     1     2   am
     7     2     3    2
     8     2     4   am
     9     4    21    1
    10    21    22   ar
    11    22    23   ar
    12    23    24   ar
    13    24    27    1
    14    27    28   ar
    15    28    29   ar
    16    29    30   ar
    17    30    34    1
    18    34    35   ar
    19    34    36   ar
    20    30    31   ar
    21    31    32    1
    22    31    33   ar
    23    24    25   ar
    24    25    26   ar
    25     4     5   am
    26     5     6    2
    27     5     7    1
    28     7     8    1
    29     8     9    1
    30     9    10    1
    31    10    37    1
    32    37    38    1
    33    38    39   ar
    34    39    40   ar
    35    40    41   ar
    36    41    42   ar
    37    42    43   ar
    38    43    44    1
    39    10    11    1
    40    11    12    1
    41    15    16   ar
    42    16    17   ar
    43    17    18   ar
    44    18    13   ar
    45     7     1    1
    46    43    38   ar
    47    26    21   ar
    48    12     7    1
    49    33    27   ar
@<TRIPOS>MOLECULE
*****
 44 49 0 0 0
SMALL
GASTEIGER

@<TRIPOS>ATOM
      1 N           3.6503   -1.1943   21.6267 N.am    1  UNL1       -0.2222
      2 C           2.4294   -0.3264   21.7075 C.2     1  UNL1        0.3219
      3 O           1.5357    0.0470   20.5622 O.2     1  UNL1       -0.2512
      4 N           2.2594    0.1025   23.1348 N.am    1  UNL1       -0.1907
      5 C           3.3750   -0.5002   23.9361 C.2     1  UNL1        0.2529
      6 O           3.5928   -0.3313   25.4105 O.2     1  UNL1       -0.2724
      7 C           4.2346   -1.3018   23.0040 C.3     1  UNL1        0.1391
      8 C           4.9961   -2.0598   21.9573 C.3     1  UNL1        0.0449
      9 C           6.2243   -2.8330   22.3361 C.3     1  UNL1        0.0746
     10 N           6.6912   -2.8481   23.7615 N.3     1  UNL1       -0.2676
     11 C           5.9297   -2.0901   24.8082 C.3     1  UNL1        0.0746
     12 C           4.7015   -1.3169   24.4294 C.3     1  UNL1        0.0449
     13 C           5.6557   -1.7241   18.2433 C.ar    1  UNL1        0.2293
     14 C           5.1143   -1.0772   19.4836 C.ar    1  UNL1        0.0924
     15 C           4.1916   -1.8412   20.3863 C.ar    1  UNL1        0.1453
     16 N           3.8102   -3.2521   20.0486 N.ar    1  UNL1       -0.2084
     17 C           4.3514   -3.8990   18.8083 C.ar    1  UNL1        0.2027
     18 N           5.2742   -3.1350   17.9056 N.ar    1  UNL1       -0.1892
     19 C           6.4095    0.5211   17.1753 C.3     1  UNL1        0.2542
     20 O           6.5784   -0.9602   17.3405 O.3     1  UNL1       -0.4560
     21 C           1.1657    0.9801   23.6673 C.ar    1  UNL1        0.0622
     22 C           0.5863    2.0627   22.8057 C.ar    1  UNL1        0.0154
     23 C          -0.5074    2.9404   23.3383 C.ar    1  UNL1        0.0013
     24 C          -1.0217    2.7354   24.7323 C.ar    1  UNL1        0.0001
     25 C          -0.4423    1.6528   25.5940 C.ar    1  UNL1        0.0013
     26 C           0.6514    0.7752   25.0614 C.ar    1  UNL1        0.0154
     27 C          -2.1154    3.6131   25.2649 C.ar    1  UNL1       -0.0003
     28 C          -1.8291    4.5757   26.3790 C.ar    1  UNL1        0.0000
     29 C          -2.9228    5.4534   26.9115 C.ar    1  UNL1        0.0008
     30 C          -4.3028    5.3683   26.3298 C.ar    1  UNL1        0.0100
     31 C          -4.5891    4.4057   25.2157 C.ar    1  UNL1       -0.0207
     32 C          -5.9691    4.3207   24.6341 C.3     1  UNL1        0.0311
     33 C          -3.4955    3.5281   24.6832 C.ar    1  UNL1       -0.0042
     34 C          -5.3965    6.2459   26.8624 C.2     1  UNL1        0.0726
     35 O          -5.7012    7.5537   26.1938 O.co2   1  UNL1       -0.5446
     36 O          -6.1855    5.8158   28.0635 O.co2   1  UNL1       -0.5446
     37 C           7.9195   -3.6213   24.1403 C.3     1  UNL1        0.1183
     38 C           7.7907   -5.0079   24.6976 C.ar    1  UNL1        0.0712
     39 N           7.1393   -5.2225   26.0316 N.ar    1  UNL1       -0.2471
     40 C           7.0105   -6.6092   26.5890 C.ar    1  UNL1        0.0985
     41 C           7.5331   -7.7812   25.8123 C.ar    1  UNL1        0.0203
     42 C           8.1846   -7.5666   24.4783 C.ar    1  UNL1       -0.0015
     43 C           8.3134   -6.1800   23.9210 C.ar    1  UNL1       -0.0069
     44 C           8.9648   -5.9654   22.5870 C.3     1  UNL1        0.0323
@<TRIPOS>UNITY_ATOM_ATTR
35 1
charge -1
@<TRIPOS>BOND
     1    19    20    1
     2    20    13    1
     3    13    14   ar
     4    14    15   ar
     5    15     1    1
     6     1     2   am
     7     2     3    2
     8     2     4   am
     9     4    21    1
    10    21    22   ar
    11    22    23   ar
    12    23    24   ar
    13    24    27    1
    14    27    28   ar
    15    28    29   ar
    16    29    30   ar
    17    30    34    1
    18    34    35   ar
    19    34    36   ar
    20    30    31   ar
    21    31    32    1
    22    31    33   ar
    23    24    25   ar
    24    25    26   ar
    25     4     5   am
    26     5     6    2
    27     5     7    1
    28     7     8    1
    29     8     9    1
    30     9    10    1
    31    10    37    1
    32    37    38    1
    33    38    39   ar
    34    39    40   ar
    35    40    41   ar
    36    41    42   ar
    37    42    43   ar
    38    43    44    1
    39    10    11    1
    40    11    12    1
    41    15    16   ar
    42    16    17   ar
    43    17    18   ar
    44    18    13   ar
    45     7     1    1
    46    43    38   ar
    47    26    21   ar
    48    12     7    1
    49    33    27   ar
@<TRIPOS>MOLECULE
*****
 44 49 0 0 0
SMALL
GASTEIGER

@<TRIPOS>ATOM
      1 N           4.3321   -0.1890   31.5253 N.am    1  UNL1       -0.2222
      2 C           3.6136    0.0305   30.2269 C.2     1  UNL1        0.3219
      3 O           3.9938   -0.5544   28.8990 O.2     1  UNL1       -0.2512
      4 N           2.4482    0.9377   30.4897 N.am    1  UNL1       -0.1907
      5 C           2.4465    1.2788   31.9503 C.2     1  UNL1        0.2529
      6 O           1.4546    2.1613   32.6485 O.2     1  UNL1       -0.2724
      7 C           3.6108    0.5825   32.5904 C.3     1  UNL1        0.1391
      8 C           4.8084   -0.1711   33.0881 C.3     1  UNL1        0.0449
      9 C           5.1852   -0.1071   34.5386 C.3     1  UNL1        0.0746
     10 N           4.3644    0.7104   35.4914 N.3     1  UNL1       -0.2676
     11 C           3.1667    1.4641   34.9937 C.3     1  UNL1        0.0746
     12 C           2.7900    1.4001   33.5432 C.3     1  UNL1        0.0449
     13 C           6.6480   -3.3538   32.1339 C.ar    1  UNL1        0.2293
     14 C           5.4232   -2.5109   31.9355 C.ar    1  UNL1        0.0924
     15 C           5.5569   -1.0320   31.7236 C.ar    1  UNL1        0.1453
     16 N           6.9154   -0.3960   31.7101 N.ar    1  UNL1       -0.2084
     17 C           8.1401   -1.2389   31.9084 C.ar    1  UNL1        0.2027
     18 N           8.0064   -2.7179   32.1203 N.ar    1  UNL1       -0.1892
     19 C           7.1101   -5.7890   31.3555 C.3     1  UNL1        0.2542
     20 O           6.5143   -4.8327   32.3458 O.3     1  UNL1       -0.4560
     21 C           1.4585    1.4191   29.4707 C.ar    1  UNL1        0.0622
     22 C           1.5257    2.8309   28.9684 C.ar    1  UNL1        0.0154
     23 C           0.5358    3.3124   27.9494 C.ar    1  UNL1        0.0013
     24 C          -0.5212    2.3821   27.4326 C.ar    1  UNL1        0.0001
     25 C          -0.5885    0.9702   27.9348 C.ar    1  UNL1        0.0013
     26 C           0.4014    0.4888   28.9539 C.ar    1  UNL1        0.0154
     27 C          -1.5111    2.8635   26.4135 C.ar    1  UNL1       -0.0003
     28 C          -1.2066    2.7302   24.9508 C.ar    1  UNL1        0.0000
     29 C          -2.1965    3.2116   23.9318 C.ar    1  UNL1        0.0008
     30 C          -3.4907    3.8264   24.3756 C.ar    1  UNL1        0.0100
     31 C          -3.7952    3.9598   25.8383 C.ar    1  UNL1       -0.0207
     32 C          -5.0895    4.5746   26.2819 C.3     1  UNL1        0.0311
     33 C          -2.8054    3.4783   26.8573 C.ar    1  UNL1       -0.0042
     34 C          -4.4806    4.3079   23.3565 C.2     1  UNL1        0.0726
     35 O          -4.5021    5.7534   22.9564 O.co2   1  UNL1       -0.5446
     36 O          -5.4489    3.3438   22.7376 O.co2   1  UNL1       -0.5446
     37 C           4.7412    0.7744   36.9419 C.3     1  UNL1        0.1183
     38 C           4.4708    2.0199   37.7328 C.ar    1  UNL1        0.0712
     39 N           5.4291    3.1721   37.6683 N.ar    1  UNL1       -0.2471
     40 C           5.1587    4.4176   38.4593 C.ar    1  UNL1        0.0985
     41 C           3.9301    4.5109   39.3147 C.ar    1  UNL1        0.0203
     42 C           2.9719    3.3587   39.3793 C.ar    1  UNL1       -0.0015
     43 C           3.2422    2.1132   38.5884 C.ar    1  UNL1       -0.0069
     44 C           2.2840    0.9610   38.6529 C.3     1  UNL1        0.0323
@<TRIPOS>UNITY_ATOM_ATTR
35 1
charge -1
@<TRIPOS>BOND
     1    19    20    1
     2    20    13    1
     3    13    14   ar
     4    14    15   ar
     5    15     1    1
     6     1     2   am
     7     2     3    2
     8     2     4   am
     9     4    21    1
    10    21    22   ar
    11    22    23   ar
    12    23    24   ar
    13    24    27    1
    14    27    28   ar
    15    28    29   ar
    16    29    30   ar
    17    30    34    1
    18    34    35   ar
    19    34    36   ar
    20    30    31   ar
    21    31    32    1
    22    31    33   ar
    23    24    25   ar
    24    25    26   ar
    25     4     5   am
    26     5     6    2
    27     5     7    1
    28     7     8    1
    29     8     9    1
    30     9    10    1
    31    10    37    1
    32    37    38    1
    33    38    39   ar
    34    39    40   ar
    35    40    41   ar
    36    41    42   ar
    37    42    43   ar
    38    43    44    1
    39    10    11    1
    40    11    12    1
    41    15    16   ar
    42    16    17   ar
    43    17    18   ar
    44    18    13   ar
    45     7     1    1
    46    43    38   ar
    47    26    21   ar
    48    12     7    1
    49    33    27   ar
@<TRIPOS>MOLECULE
*****
 44 49 0 0 0
SMALL
GASTEIGER

@<TRIPOS>ATOM
      1 N           3.5266   -0.7911   23.1903 N.am    1  UNL1       -0.2222
      2 C           2.3005    0.0707   23.1261 C.2     1  UNL1        0.3219
      3 O           1.5684    0.4709   21.8795 O.2     1  UNL1       -0.2512
      4 N           1.9351    0.4622   24.5273 N.am    1  UNL1       -0.1907
      5 C           2.9353   -0.1578   25.4575 C.2     1  UNL1        0.2529
      6 O           2.9496   -0.0262   26.9516 O.2     1  UNL1       -0.2724
      7 C           3.9189   -0.9324   24.6312 C.3     1  UNL1        0.1391
      8 C           4.8205   -1.6608   23.6792 C.3     1  UNL1        0.0449
      9 C           5.9909   -2.4398   24.2020 C.3     1  UNL1        0.0746
     10 N           6.2597   -2.4903   25.6768 N.3     1  UNL1       -0.2676
     11 C           5.3581   -1.7618   26.6289 C.3     1  UNL1        0.0746
     12 C           4.1877   -0.9829   26.1061 C.3     1  UNL1        0.0449
     13 C           4.6150   -3.4164   20.4203 C.ar    1  UNL1        0.2293
     14 C           3.9059   -2.8034   21.5913 C.ar    1  UNL1        0.0924
     15 C           4.2357   -1.4041   22.0193 C.ar    1  UNL1        0.1453
     16 N           5.2747   -0.6178   21.2762 N.ar    1  UNL1       -0.2084
     17 C           5.9839   -1.2307   20.1052 C.ar    1  UNL1        0.2027
     18 N           5.6540   -2.6301   19.6772 N.ar    1  UNL1       -0.1892
     19 C           4.6605   -5.2879   18.6189 C.3     1  UNL1        0.2542
     20 O           4.2852   -4.8157   19.9923 O.3     1  UNL1       -0.4560
     21 C           0.7736    1.3224   24.9279 C.ar    1  UNL1        0.0622
     22 C           0.1898    2.2977   23.9492 C.ar    1  UNL1        0.0154
     23 C          -0.9718    3.1580   24.3498 C.ar    1  UNL1        0.0013
     24 C          -1.5497    3.0430   25.7293 C.ar    1  UNL1        0.0001
     25 C          -0.9660    2.0677   26.7081 C.ar    1  UNL1        0.0013
     26 C           0.1957    1.2074   26.3074 C.ar    1  UNL1        0.0154
     27 C          -2.7114    3.9033   26.1299 C.ar    1  UNL1       -0.0003
     28 C          -4.0777    3.6232   25.5779 C.ar    1  UNL1        0.0000
     29 C          -5.2393    4.4835   25.9786 C.ar    1  UNL1        0.0008
     30 C          -5.0345    5.6239   26.9313 C.ar    1  UNL1        0.0100
     31 C          -3.6682    5.9040   27.4833 C.ar    1  UNL1       -0.0207
     32 C          -3.4636    7.0443   28.4360 C.3     1  UNL1        0.0311
     33 C          -2.5066    5.0437   27.0827 C.ar    1  UNL1       -0.0042
     34 C          -6.1961    6.4842   27.3319 C.2     1  UNL1        0.0726
     35 O          -6.6319    7.6152   26.4482 O.co2   1  UNL1       -0.5446
     36 O          -6.9221    6.2135   28.6164 O.co2   1  UNL1       -0.5446
     37 C           7.4301   -3.2693   26.1996 C.3     1  UNL1        0.1183
     38 C           7.5577   -4.7310   25.8879 C.ar    1  UNL1        0.0712
     39 N           8.3131   -5.1751   24.6705 N.ar    1  UNL1       -0.2471
     40 C           8.4406   -6.6369   24.3588 C.ar    1  UNL1        0.0985
     41 C           7.8128   -7.6544   25.2645 C.ar    1  UNL1        0.0203
     42 C           7.0574   -7.2103   26.4820 C.ar    1  UNL1       -0.0015
     43 C           6.9299   -5.7486   26.7937 C.ar    1  UNL1       -0.0069
     44 C           6.1745   -5.3045   28.0111 C.3     1  UNL1        0.0323
@<TRIPOS>UNITY_ATOM_ATTR
35 1
charge -1
@<TRIPOS>BOND
     1    19    20    1
     2    20    13    1
     3    13    14   ar
     4    14    15   ar
     5    15     1    1
     6     1     2   am
     7     2     3    2
     8     2     4   am
     9     4    21    1
    10    21    22   ar
    11    22    23   ar
    12    23    24   ar
    13    24    27    1
    14    27    28   ar
    15    28    29   ar
    16    29    30   ar
    17    30    34    1
    18    34    35   ar
    19    34    36   ar
    20    30    31   ar
    21    31    32    1
    22    31    33   ar
    23    24    25   ar
    24    25    26   ar
    25     4     5   am
    26     5     6    2
    27     5     7    1
    28     7     8    1
    29     8     9    1
    30     9    10    1
    31    10    37    1
    32    37    38    1
    33    38    39   ar
    34    39    40   ar
    35    40    41   ar
    36    41    42   ar
    37    42    43   ar
    38    43    44    1
    39    10    11    1
    40    11    12    1
    41    15    16   ar
    42    16    17   ar
    43    17    18   ar
    44    18    13   ar
    45     7     1    1
    46    43    38   ar
    47    26    21   ar
    48    12     7    1
    49    33    27   ar
@<TRIPOS>MOLECULE
*****
 44 49 0 0 0
SMALL
GASTEIGER

@<TRIPOS>ATOM
      1 N           6.0037   -2.3201   26.1907 N.am    1  UNL1       -0.2222
      2 C           6.0589   -1.9990   27.6550 C.2     1  UNL1        0.3219
      3 O           7.0908   -2.4895   28.6268 O.2     1  UNL1       -0.2512
      4 N           4.9010   -1.1014   27.9767 N.am    1  UNL1       -0.1907
      5 C           4.1301   -0.8676   26.7113 C.2     1  UNL1        0.2529
      6 O           2.8947   -0.0281   26.5738 O.2     1  UNL1       -0.2724
      7 C           4.8116   -1.6208   25.6075 C.3     1  UNL1        0.1391
      8 C           5.5973   -2.4211   24.6114 C.3     1  UNL1        0.0449
      9 C           5.1630   -2.4670   23.1764 C.3     1  UNL1        0.0746
     10 N           3.9431   -1.7125   22.7375 N.3     1  UNL1       -0.2676
     11 C           3.1574   -0.9122   23.7336 C.3     1  UNL1        0.0746
     12 C           3.5917   -0.8664   25.1686 C.3     1  UNL1        0.0449
     13 C           7.8029   -5.5488   24.7458 C.ar    1  UNL1        0.2293
     14 C           6.8359   -4.6809   25.4952 C.ar    1  UNL1        0.0924
     15 C           6.9707   -3.1880   25.4413 C.ar    1  UNL1        0.1453
     16 N           8.0725   -2.5629   24.6380 N.ar    1  UNL1       -0.2084
     17 C           9.0395   -3.4307   23.8886 C.ar    1  UNL1        0.2027
     18 N           8.9048   -4.9237   23.9425 N.ar    1  UNL1       -0.1892
     19 C           7.3234   -7.7174   26.0937 C.3     1  UNL1        0.2542
     20 O           7.6682   -7.0417   24.7997 O.3     1  UNL1       -0.4560
     21 C           4.5717   -0.5367   29.3267 C.ar    1  UNL1        0.0622
     22 C           5.5948    0.2668   30.0734 C.ar    1  UNL1        0.0154
     23 C           5.2655    0.8316   31.4235 C.ar    1  UNL1        0.0013
     24 C           3.9131    0.5928   32.0268 C.ar    1  UNL1        0.0001
     25 C           2.8900   -0.2107   31.2801 C.ar    1  UNL1        0.0013
     26 C           3.2193   -0.7754   29.9300 C.ar    1  UNL1        0.0154
     27 C           3.5839    1.1576   33.3769 C.ar    1  UNL1       -0.0003
     28 C           2.5856    2.2702   33.5013 C.ar    1  UNL1        0.0000
     29 C           2.2564    2.8350   34.8514 C.ar    1  UNL1        0.0008
     30 C           2.9254    2.2870   36.0770 C.ar    1  UNL1        0.0100
     31 C           3.9236    1.1743   35.9526 C.ar    1  UNL1       -0.0207
     32 C           4.5925    0.6264   37.1783 C.3     1  UNL1        0.0311
     33 C           4.2529    0.6096   34.6026 C.ar    1  UNL1       -0.0042
     34 C           2.5961    2.8517   37.4270 C.2     1  UNL1        0.0726
     35 O           1.3415    2.4280   38.1316 O.co2   1  UNL1       -0.5446
     36 O           3.5215    3.8402   38.0726 O.co2   1  UNL1       -0.5446
     37 C           3.5088   -1.7584   21.3024 C.3     1  UNL1        0.1183
     38 C           4.5350   -1.7997   20.2092 C.ar    1  UNL1        0.0712
     39 N           5.5329   -0.6879   20.0749 N.ar    1  UNL1       -0.2471
     40 C           6.5592   -0.7292   18.9817 C.ar    1  UNL1        0.0985
     41 C           6.5875   -1.8823   18.0228 C.ar    1  UNL1        0.0203
     42 C           5.5896   -2.9941   18.1571 C.ar    1  UNL1       -0.0015
     43 C           4.5634   -2.9529   19.2503 C.ar    1  UNL1       -0.0069
     44 C           3.5655   -4.0647   19.3846 C.3     1  UNL1        0.0323
@<TRIPOS>UNITY_ATOM_ATTR
35 1
charge -1
@<TRIPOS>BOND
     1    19    20    1
     2    20    13    1
     3    13    14   ar
     4    14    15   ar
     5    15     1    1
     6     1     2   am
     7     2     3    2
     8     2     4   am
     9     4    21    1
    10    21    22   ar
    11    22    23   ar
    12    23    24   ar
    13    24    27    1
    14    27    28   ar
    15    28    29   ar
    16    29    30   ar
    17    30    34    1
    18    34    35   ar
    19    34    36   ar
    20    30    31   ar
    21    31    32    1
    22    31    33   ar
    23    24    25   ar
    24    25    26   ar
    25     4     5   am
    26     5     6    2
    27     5     7    1
    28     7     8    1
    29     8     9    1
    30     9    10    1
    31    10    37    1
    32    37    38    1
    33    38    39   ar
    34    39    40   ar
    35    40    41   ar
    36    41    42   ar
    37    42    43   ar
    38    43    44    1
    39    10    11    1
    40    11    12    1
    41    15    16   ar
    42    16    17   ar
    43    17    18   ar
    44    18    13   ar
    45     7     1    1
    46    43    38   ar
    47    26    21   ar
    48    12     7    1
    49    33    27   ar
@<TRIPOS>MOLECULE
*****
 44 49 0 0 0
SMALL
GASTEIGER

@<TRIPOS>ATOM
      1 N           3.4516   -0.0924   30.5909 N.am    1  UNL1       -0.2222
      2 C           2.1945    0.6882   30.3452 C.2     1  UNL1        0.3219
      3 O           1.3234    1.3104   31.3959 O.2     1  UNL1       -0.2512
      4 N           1.9614    0.7374   28.8641 N.am    1  UNL1       -0.1907
      5 C           3.0744   -0.0128   28.1946 C.2     1  UNL1        0.2529
      6 O           3.2379   -0.2148   26.7173 O.2     1  UNL1       -0.2724
      7 C           3.9955   -0.5257   29.2618 C.3     1  UNL1        0.1391
      8 C           4.8203   -0.9707   30.4329 C.3     1  UNL1        0.0449
      9 C           6.0664   -1.7754   30.2100 C.3     1  UNL1        0.0746
     10 N           6.4875   -2.1353   28.8161 N.3     1  UNL1       -0.2676
     11 C           5.6627   -1.6903   27.6450 C.3     1  UNL1        0.0746
     12 C           4.4167   -0.8855   27.8678 C.3     1  UNL1        0.0449
     13 C           5.5929    0.3076   33.9082 C.ar    1  UNL1        0.2293
     14 C           4.9862    0.6030   32.5686 C.ar    1  UNL1        0.0924
     15 C           4.0583   -0.3879   31.9305 C.ar    1  UNL1        0.1453
     16 N           3.7372   -1.6743   32.6320 N.ar    1  UNL1       -0.2084
     17 C           4.3439   -1.9698   33.9716 C.ar    1  UNL1        0.2027
     18 N           5.2718   -0.9788   34.6097 N.ar    1  UNL1       -0.1892
     19 C           6.9565    1.1093   35.9692 C.3     1  UNL1        0.2542
     20 O           6.5207    1.2984   34.5464 O.3     1  UNL1       -0.4560
     21 C           0.8164    1.4173   28.1740 C.ar    1  UNL1        0.0622
     22 C           1.0765    2.5620   27.2401 C.ar    1  UNL1        0.0154
     23 C          -0.0686    3.2420   26.5499 C.ar    1  UNL1        0.0013
     24 C          -1.4738    2.7773   26.7935 C.ar    1  UNL1        0.0001
     25 C          -1.7340    1.6326   27.7274 C.ar    1  UNL1        0.0013
     26 C          -0.5889    0.9527   28.4176 C.ar    1  UNL1        0.0154
     27 C          -2.6189    3.4573   26.1033 C.ar    1  UNL1       -0.0003
     28 C          -2.7367    3.3967   24.6091 C.ar    1  UNL1        0.0000
     29 C          -3.8818    4.0767   23.9189 C.ar    1  UNL1        0.0008
     30 C          -4.9090    4.8172   24.7229 C.ar    1  UNL1        0.0100
     31 C          -4.7912    4.8779   26.2170 C.ar    1  UNL1       -0.0207
     32 C          -5.8184    5.6185   27.0209 C.3     1  UNL1        0.0311
     33 C          -3.6462    4.1979   26.9072 C.ar    1  UNL1       -0.0042
     34 C          -6.0541    5.4972   24.0327 C.2     1  UNL1        0.0726
     35 O          -7.3504    4.7687   23.8355 O.co2   1  UNL1       -0.5446
     36 O          -5.9029    6.9059   23.5396 O.co2   1  UNL1       -0.5446
     37 C           7.7336   -2.9401   28.5933 C.3     1  UNL1        0.1183
     38 C           7.7222   -4.0885   27.6284 C.ar    1  UNL1        0.0712
     39 N           8.1180   -3.8704   26.1981 N.ar    1  UNL1       -0.2471
     40 C           8.1066   -5.0189   25.2333 C.ar    1  UNL1        0.0985
     41 C           7.6994   -6.3854   25.6987 C.ar    1  UNL1        0.0203
     42 C           7.3036   -6.6035   27.1290 C.ar    1  UNL1       -0.0015
     43 C           7.3150   -5.4551   28.0939 C.ar    1  UNL1       -0.0069
     44 C           6.9192   -5.6733   29.5242 C.3     1  UNL1        0.0323
@<TRIPOS>UNITY_ATOM_ATTR
35 1
charge -1
@<TRIPOS>BOND
     1    19    20    1
     2    20    13    1
     3    13    14   ar
     4    14    15   ar
     5    15     1    1
     6     1     2   am
     7     2     3    2
     8     2     4   am
     9     4    21    1
    10    21    22   ar
    11    22    23   ar
    12    23    24   ar
    13    24    27    1
    14    27    28   ar
    15    28    29   ar
    16    29    30   ar
    17    30    34    1
    18    34    35   ar
    19    34    36   ar
    20    30    31   ar
    21    31    32    1
    22    31    33   ar
    23    24    25   ar
    24    25    26   ar
    25     4     5   am
    26     5     6    2
    27     5     7    1
    28     7     8    1
    29     8     9    1
    30     9    10    1
    31    10    37    1
    32    37    38    1
    33    38    39   ar
    34    39    40   ar
    35    40    41   ar
    36    41    42   ar
    37    42    43   ar
    38    43    44    1
    39    10    11    1
    40    11    12    1
    41    15    16   ar
    42    16    17   ar
    43    17    18   ar
    44    18    13   ar
    45     7     1    1
    46    43    38   ar
    47    26    21   ar
    48    12     7    1
    49    33    27   ar
@<TRIPOS>MOLECULE
*****
 44 49 0 0 0
SMALL
GASTEIGER

@<TRIPOS>ATOM
      1 N           1.6199    1.8850   24.2749 N.am    1  UNL1       -0.2222
      2 C           1.7570    2.1386   25.7470 C.2     1  UNL1        0.3219
      3 O           1.2076    3.3181   26.4933 O.2     1  UNL1       -0.2512
      4 N           2.5399    1.0057   26.3416 N.am    1  UNL1       -0.1907
      5 C           2.8866    0.0518   25.2371 C.2     1  UNL1        0.2529
      6 O           3.6652   -1.2218   25.3840 O.2     1  UNL1       -0.2724
      7 C           2.3180    0.5953   23.9597 C.3     1  UNL1        0.1391
      8 C           1.6952    1.2590   22.7675 C.3     1  UNL1        0.0449
      9 C           1.8054    0.6242   21.4130 C.3     1  UNL1        0.0746
     10 N           2.5385   -0.6744   21.2507 N.3     1  UNL1       -0.2676
     11 C           3.1614   -1.3381   22.4429 C.3     1  UNL1        0.0746
     12 C           3.0512   -0.7033   23.7974 C.3     1  UNL1        0.0449
     13 C          -1.2527    3.4183   22.0062 C.ar    1  UNL1        0.2293
     14 C          -0.5422    2.5370   22.9903 C.ar    1  UNL1        0.0924
     15 C           0.9094    2.7663   23.2908 C.ar    1  UNL1        0.1453
     16 N           1.6505    3.8769   22.6071 N.ar    1  UNL1       -0.2084
     17 C           0.9401    4.7582   21.6231 C.ar    1  UNL1        0.2027
     18 N          -0.5116    4.5289   21.3226 N.ar    1  UNL1       -0.1892
     19 C          -3.2146    3.3505   20.3045 C.3     1  UNL1        0.2542
     20 O          -2.7043    3.1891   21.7057 O.3     1  UNL1       -0.4560
     21 C           2.9109    0.8533   27.7869 C.ar    1  UNL1        0.0622
     22 C           3.8781    1.8106   28.4179 C.ar    1  UNL1        0.0154
     23 C           4.2491    1.6582   29.8633 C.ar    1  UNL1        0.0013
     24 C           3.6529    0.5486   30.6777 C.ar    1  UNL1        0.0001
     25 C           2.6856   -0.4087   30.0468 C.ar    1  UNL1        0.0013
     26 C           2.3147   -0.2563   28.6014 C.ar    1  UNL1        0.0154
     27 C           4.0239    0.3962   32.1231 C.ar    1  UNL1       -0.0003
     28 C           3.9851   -0.9572   32.7688 C.ar    1  UNL1        0.0000
     29 C           4.3561   -1.1095   34.2142 C.ar    1  UNL1        0.0008
     30 C           4.7659    0.0916   35.0139 C.ar    1  UNL1        0.0100
     31 C           4.8047    1.4449   34.3682 C.ar    1  UNL1       -0.0207
     32 C           5.2145    2.6459   35.1680 C.3     1  UNL1        0.0311
     33 C           4.4337    1.5973   32.9229 C.ar    1  UNL1       -0.0042
     34 C           5.1369   -0.0608   36.4593 C.2     1  UNL1        0.0726
     35 O           6.4599   -0.6595   36.8349 O.co2   1  UNL1       -0.5446
     36 O           4.1847    0.3856   37.5291 O.co2   1  UNL1       -0.5446
     37 C           2.6487   -1.3092   19.8960 C.3     1  UNL1        0.1183
     38 C           3.9989   -1.5576   19.2918 C.ar    1  UNL1        0.0712
     39 N           4.9397   -0.4122   19.0613 N.ar    1  UNL1       -0.2471
     40 C           6.2900   -0.6607   18.4570 C.ar    1  UNL1        0.0985
     41 C           6.6994   -2.0544   18.0833 C.ar    1  UNL1        0.0203
     42 C           5.7587   -3.1998   18.3138 C.ar    1  UNL1       -0.0015
     43 C           4.4085   -2.9514   18.9180 C.ar    1  UNL1       -0.0069
     44 C           3.4677   -4.0967   19.1485 C.3     1  UNL1        0.0323
@<TRIPOS>UNITY_ATOM_ATTR
35 1
charge -1
@<TRIPOS>BOND
     1    19    20    1
     2    20    13    1
     3    13    14   ar
     4    14    15   ar
     5    15     1    1
     6     1     2   am
     7     2     3    2
     8     2     4   am
     9     4    21    1
    10    21    22   ar
    11    22    23   ar
    12    23    24   ar
    13    24    27    1
    14    27    28   ar
    15    28    29   ar
    16    29    30   ar
    17    30    34    1
    18    34    35   ar
    19    34    36   ar
    20    30    31   ar
    21    31    32    1
    22    31    33   ar
    23    24    25   ar
    24    25    26   ar
    25     4     5   am
    26     5     6    2
    27     5     7    1
    28     7     8    1
    29     8     9    1
    30     9    10    1
    31    10    37    1
    32    37    38    1
    33    38    39   ar
    34    39    40   ar
    35    40    41   ar
    36    41    42   ar
    37    42    43   ar
    38    43    44    1
    39    10    11    1
    40    11    12    1
    41    15    16   ar
    42    16    17   ar
    43    17    18   ar
    44    18    13   ar
    45     7     1    1
    46    43    38   ar
    47    26    21   ar
    48    12     7    1
    49    33    27   ar
@<TRIPOS>MOLECULE
*****
 44 49 0 0 0
SMALL
GASTEIGER

@<TRIPOS>ATOM
      1 N           3.4476   -0.0085   30.5824 N.am    1  UNL1       -0.2222
      2 C           2.1759    0.7485   30.3376 C.2     1  UNL1        0.3219
      3 O           1.2743    1.3216   31.3905 O.2     1  UNL1       -0.2512
      4 N           1.9641    0.8318   28.8549 N.am    1  UNL1       -0.1907
      5 C           3.1049    0.1263   28.1834 C.2     1  UNL1        0.2529
      6 O           3.2955   -0.0322   26.7040 O.2     1  UNL1       -0.2724
      7 C           4.0217   -0.3931   29.2510 C.3     1  UNL1        0.1391
      8 C           4.8392   -0.8496   30.4229 C.3     1  UNL1        0.0449
      9 C           6.1075   -1.6184   30.1985 C.3     1  UNL1        0.0746
     10 N           6.5582   -1.9308   28.8024 N.3     1  UNL1       -0.2676
     11 C           5.7407   -1.4742   27.6305 C.3     1  UNL1        0.0746
     12 C           4.4725   -0.7054   27.8549 C.3     1  UNL1        0.0449
     13 C           5.5587    0.3367   33.9251 C.ar    1  UNL1        0.2293
     14 C           4.9654    0.6535   32.5843 C.ar    1  UNL1        0.0924
     15 C           4.0409   -0.3253   31.9231 C.ar    1  UNL1        0.1453
     16 N           3.7096   -1.6208   32.6027 N.ar    1  UNL1       -0.2084
     17 C           4.3029   -1.9377   33.9434 C.ar    1  UNL1        0.2027
     18 N           5.2275   -0.9588   34.6046 N.ar    1  UNL1       -0.1892
     19 C           6.1354    1.8860   35.9293 C.3     1  UNL1        0.2542
     20 O           6.4832    1.3155   34.5863 O.3     1  UNL1       -0.4560
     21 C           0.8137    1.5027   28.1649 C.ar    1  UNL1        0.0622
     22 C           1.0623    2.6659   27.2510 C.ar    1  UNL1        0.0154
     23 C          -0.0883    3.3369   26.5610 C.ar    1  UNL1        0.0013
     24 C          -1.4874    2.8446   26.7849 C.ar    1  UNL1        0.0001
     25 C          -1.7361    1.6814   27.6988 C.ar    1  UNL1        0.0013
     26 C          -0.5855    1.0105   28.3887 C.ar    1  UNL1        0.0154
     27 C          -2.6379    3.5156   26.0948 C.ar    1  UNL1       -0.0003
     28 C          -2.7342    3.4881   24.5982 C.ar    1  UNL1        0.0000
     29 C          -3.8848    4.1591   23.9082 C.ar    1  UNL1        0.0008
     30 C          -4.9390    4.8575   24.7149 C.ar    1  UNL1        0.0100
     31 C          -4.8427    4.8850   26.2116 C.ar    1  UNL1       -0.0207
     32 C          -5.8969    5.5835   27.0182 C.3     1  UNL1        0.0311
     33 C          -3.6922    4.2141   26.9016 C.ar    1  UNL1       -0.0042
     34 C          -6.0895    5.5285   24.0249 C.2     1  UNL1        0.0726
     35 O          -5.9495    6.9382   23.5318 O.co2   1  UNL1       -0.5446
     36 O          -7.3801    4.7897   23.8281 O.co2   1  UNL1       -0.5446
     37 C           7.8266   -2.6997   28.5781 C.3     1  UNL1        0.1183
     38 C           8.1687   -3.8579   29.4676 C.ar    1  UNL1        0.0712
     39 N           9.1903   -3.6935   30.5536 N.ar    1  UNL1       -0.2471
     40 C           9.5324   -4.8519   31.4431 C.ar    1  UNL1        0.0985
     41 C           8.8530   -6.1746   31.2466 C.ar    1  UNL1        0.0203
     42 C           7.8314   -6.3391   30.1606 C.ar    1  UNL1       -0.0015
     43 C           7.4893   -5.1808   29.2711 C.ar    1  UNL1       -0.0069
     44 C           6.4677   -5.3453   28.1851 C.3     1  UNL1        0.0323
@<TRIPOS>UNITY_ATOM_ATTR
35 1
charge -1
@<TRIPOS>BOND
     1    19    20    1
     2    20    13    1
     3    13    14   ar
     4    14    15   ar
     5    15     1    1
     6     1     2   am
     7     2     3    2
     8     2     4   am
     9     4    21    1
    10    21    22   ar
    11    22    23   ar
    12    23    24   ar
    13    24    27    1
    14    27    28   ar
    15    28    29   ar
    16    29    30   ar
    17    30    34    1
    18    34    35   ar
    19    34    36   ar
    20    30    31   ar
    21    31    32    1
    22    31    33   ar
    23    24    25   ar
    24    25    26   ar
    25     4     5   am
    26     5     6    2
    27     5     7    1
    28     7     8    1
    29     8     9    1
    30     9    10    1
    31    10    37    1
    32    37    38    1
    33    38    39   ar
    34    39    40   ar
    35    40    41   ar
    36    41    42   ar
    37    42    43   ar
    38    43    44    1
    39    10    11    1
    40    11    12    1
    41    15    16   ar
    42    16    17   ar
    43    17    18   ar
    44    18    13   ar
    45     7     1    1
    46    43    38   ar
    47    26    21   ar
    48    12     7    1
    49    33    27   ar
