@<TRIPOS>MOLECULE
*****
 15 16 0 0 0
SMALL
GASTEIGER

@<TRIPOS>ATOM
      1 C          -6.9209  -20.0029   20.8944 C.3     1  UNL1        0.0345
      2 C          -8.1862  -19.6424   21.6150 C.2     1  UNL1        0.0202
      3 C          -8.3345  -19.9579   23.0739 C.2     1  UNL1        0.0410
      4 C          -9.5997  -19.5973   23.7944 C.2     1  UNL1        0.1984
      5 O          -9.7479  -19.9128   25.2534 O.2     1  UNL1       -0.2865
      6 C         -10.7168  -18.9213   23.0560 C.ar    1  UNL1        0.0756
      7 C         -11.9820  -18.5608   23.7765 C.ar    1  UNL1        0.1368
      8 O         -12.1302  -18.8763   25.2355 O.3     1  UNL1       -0.5054
      9 C         -13.0990  -17.8848   23.0381 C.ar    1  UNL1        0.0367
     10 C         -12.9508  -17.5693   21.5792 C.ar    1  UNL1        0.0032
     11 C         -11.6855  -17.9298   20.8587 C.ar    1  UNL1        0.0035
     12 C         -10.5685  -18.6058   21.5971 C.ar    1  UNL1        0.0446
     13 C          -9.3032  -18.9664   20.8765 C.2     1  UNL1        0.1919
     14 O          -9.1550  -18.6509   19.4176 O.2     1  UNL1       -0.2869
     15 H         -11.4324  -19.2986   25.6967 H       1  UNL1        0.2922
@<TRIPOS>BOND
     1     1     2    1
     2     2     3    2
     3     3     4    1
     4     4     5    2
     5     4     6    1
     6     6     7   ar
     7     7     8    1
     8     7     9   ar
     9     9    10   ar
    10    10    11   ar
    11    11    12   ar
    12    12    13    1
    13    13    14    2
    14    13     2    1
    15    12     6   ar
    16     8    15    1
@<TRIPOS>MOLECULE
*****
 15 16 0 0 0
SMALL
GASTEIGER

@<TRIPOS>ATOM
      1 C         -11.0226  -19.3322   21.7820 C.3     1  UNL1        0.0345
      2 C         -10.2160  -18.3448   22.5723 C.2     1  UNL1        0.0202
      3 C          -9.4782  -17.2447   21.8684 C.2     1  UNL1        0.0410
      4 C          -8.6717  -16.2574   22.6586 C.2     1  UNL1        0.1984
      5 O          -7.9339  -15.1572   21.9547 O.2     1  UNL1       -0.2865
      6 C          -8.6028  -16.3701   24.1528 C.ar    1  UNL1        0.0756
      7 C          -7.7962  -15.3827   24.9431 C.ar    1  UNL1        0.1368
      8 O          -7.0585  -14.2826   24.2392 O.3     1  UNL1       -0.5054
      9 C          -7.7274  -15.4955   26.4372 C.ar    1  UNL1        0.0367
     10 C          -8.4651  -16.5956   27.1411 C.ar    1  UNL1        0.0032
     11 C          -9.2717  -17.5830   26.3509 C.ar    1  UNL1        0.0035
     12 C          -9.3405  -17.4702   24.8567 C.ar    1  UNL1        0.0446
     13 C         -10.1471  -18.4576   24.0664 C.2     1  UNL1        0.1919
     14 O         -10.8849  -19.5577   24.7703 O.2     1  UNL1       -0.2869
     15 H          -7.1015  -14.2122   23.3058 H       1  UNL1        0.2922
@<TRIPOS>BOND
     1     1     2    1
     2     2     3    2
     3     3     4    1
     4     4     5    2
     5     4     6    1
     6     6     7   ar
     7     7     8    1
     8     7     9   ar
     9     9    10   ar
    10    10    11   ar
    11    11    12   ar
    12    12    13    1
    13    13    14    2
    14    13     2    1
    15    12     6   ar
    16     8    15    1
@<TRIPOS>MOLECULE
*****
 15 16 0 0 0
SMALL
GASTEIGER

@<TRIPOS>ATOM
      1 C          -8.4555  -16.1241   26.0878 C.3     1  UNL1        0.0345
      2 C          -8.9613  -16.6307   24.7696 C.2     1  UNL1        0.0202
      3 C          -8.8751  -15.7624   23.5494 C.2     1  UNL1        0.0410
      4 C          -9.3809  -16.2689   22.2313 C.2     1  UNL1        0.1984
      5 O          -9.2947  -15.4007   21.0111 O.2     1  UNL1       -0.2865
      6 C          -9.9729  -17.6437   22.1332 C.ar    1  UNL1        0.0756
      7 C         -10.4787  -18.1502   20.8150 C.ar    1  UNL1        0.1368
      8 O         -10.3925  -17.2820   19.5949 O.3     1  UNL1       -0.5054
      9 C         -11.0706  -19.5250   20.7170 C.ar    1  UNL1        0.0367
     10 C         -11.1568  -20.3932   21.9372 C.ar    1  UNL1        0.0032
     11 C         -10.6510  -19.8867   23.2553 C.ar    1  UNL1        0.0035
     12 C         -10.0591  -18.5120   23.3534 C.ar    1  UNL1        0.0446
     13 C          -9.5532  -18.0054   24.6716 C.2     1  UNL1        0.1919
     14 O          -9.6394  -18.8736   25.8917 O.2     1  UNL1       -0.2869
     15 H         -10.0227  -16.4233   19.6561 H       1  UNL1        0.2922
@<TRIPOS>BOND
     1     1     2    1
     2     2     3    2
     3     3     4    1
     4     4     5    2
     5     4     6    1
     6     6     7   ar
     7     7     8    1
     8     7     9   ar
     9     9    10   ar
    10    10    11   ar
    11    11    12   ar
    12    12    13    1
    13    13    14    2
    14    13     2    1
    15    12     6   ar
    16     8    15    1
@<TRIPOS>MOLECULE
*****
 15 16 0 0 0
SMALL
GASTEIGER

@<TRIPOS>ATOM
      1 C         -11.7033  -16.2511   19.1577 C.3     1  UNL1        0.0345
      2 C         -11.6387  -16.9817   20.4663 C.2     1  UNL1        0.0202
      3 C         -12.7068  -16.7687   21.4977 C.2     1  UNL1        0.0410
      4 C         -12.6423  -17.4991   22.8062 C.2     1  UNL1        0.1984
      5 O         -13.7104  -17.2861   23.8375 O.2     1  UNL1       -0.2865
      6 C         -11.5096  -18.4427   23.0833 C.ar    1  UNL1        0.0756
      7 C         -11.4450  -19.1732   24.3918 C.ar    1  UNL1        0.1368
      8 O         -12.5131  -18.9602   25.4232 O.3     1  UNL1       -0.5054
      9 C         -10.3123  -20.1167   24.6689 C.ar    1  UNL1        0.0367
     10 C          -9.2442  -20.3297   23.6375 C.ar    1  UNL1        0.0032
     11 C          -9.3088  -19.5992   22.3290 C.ar    1  UNL1        0.0035
     12 C         -10.4414  -18.6557   22.0519 C.ar    1  UNL1        0.0446
     13 C         -10.5060  -17.9252   20.7434 C.2     1  UNL1        0.1919
     14 O          -9.4379  -18.1382   19.7120 O.2     1  UNL1       -0.2869
     15 H         -13.2207  -18.3708   25.2501 H       1  UNL1        0.2922
@<TRIPOS>BOND
     1     1     2    1
     2     2     3    2
     3     3     4    1
     4     4     5    2
     5     4     6    1
     6     6     7   ar
     7     7     8    1
     8     7     9   ar
     9     9    10   ar
    10    10    11   ar
    11    11    12   ar
    12    12    13    1
    13    13    14    2
    14    13     2    1
    15    12     6   ar
    16     8    15    1
@<TRIPOS>MOLECULE
*****
 15 16 0 0 0
SMALL
GASTEIGER

@<TRIPOS>ATOM
      1 C          -9.1362  -20.3966   18.5610 C.3     1  UNL1        0.0345
      2 C          -9.5137  -19.3954   19.6122 C.2     1  UNL1        0.0202
      3 C         -10.8281  -18.6776   19.5269 C.2     1  UNL1        0.0410
      4 C         -11.2055  -17.6764   20.5781 C.2     1  UNL1        0.1984
      5 O         -12.5199  -16.9587   20.4927 O.2     1  UNL1       -0.2865
      6 C         -10.2686  -17.3929   21.7147 C.ar    1  UNL1        0.0756
      7 C         -10.6461  -16.3917   22.7659 C.ar    1  UNL1        0.1368
      8 O         -11.9605  -15.6740   22.6805 O.3     1  UNL1       -0.5054
      9 C          -9.7092  -16.1082   23.9025 C.ar    1  UNL1        0.0367
     10 C          -8.3948  -16.8259   23.9878 C.ar    1  UNL1        0.0032
     11 C          -8.0174  -17.8272   22.9366 C.ar    1  UNL1        0.0035
     12 C          -8.9543  -18.1106   21.8001 C.ar    1  UNL1        0.0446
     13 C          -8.5768  -19.1119   20.7488 C.2     1  UNL1        0.1919
     14 O          -7.2624  -19.8296   20.8342 O.2     1  UNL1       -0.2869
     15 H         -12.5457  -15.8511   21.9705 H       1  UNL1        0.2922
@<TRIPOS>BOND
     1     1     2    1
     2     2     3    2
     3     3     4    1
     4     4     5    2
     5     4     6    1
     6     6     7   ar
     7     7     8    1
     8     7     9   ar
     9     9    10   ar
    10    10    11   ar
    11    11    12   ar
    12    12    13    1
    13    13    14    2
    14    13     2    1
    15    12     6   ar
    16     8    15    1
@<TRIPOS>MOLECULE
*****
 15 16 0 0 0
SMALL
GASTEIGER

@<TRIPOS>ATOM
      1 C         -13.9583  -17.8545   24.1303 C.3     1  UNL1        0.0345
      2 C         -12.6482  -18.3089   23.5583 C.2     1  UNL1        0.0202
      3 C         -11.6082  -18.9141   24.4540 C.2     1  UNL1        0.0410
      4 C         -10.2982  -19.3684   23.8820 C.2     1  UNL1        0.1984
      5 O          -9.2582  -19.9736   24.7778 O.2     1  UNL1       -0.2865
      6 C         -10.0279  -19.2175   22.4143 C.ar    1  UNL1        0.0756
      7 C          -8.7178  -19.6719   21.8423 C.ar    1  UNL1        0.1368
      8 O          -7.6779  -20.2771   22.7380 O.3     1  UNL1       -0.5054
      9 C          -8.4477  -19.5210   20.3746 C.ar    1  UNL1        0.0367
     10 C          -9.4876  -18.9158   19.4789 C.ar    1  UNL1        0.0032
     11 C         -10.7977  -18.4615   20.0508 C.ar    1  UNL1        0.0035
     12 C         -11.0678  -18.6123   21.5185 C.ar    1  UNL1        0.0446
     13 C         -12.3780  -18.1580   22.0906 C.2     1  UNL1        0.1919
     14 O         -13.4179  -17.5528   21.1949 O.2     1  UNL1       -0.2869
     15 H          -7.8467  -20.3713   23.6548 H       1  UNL1        0.2922
@<TRIPOS>BOND
     1     1     2    1
     2     2     3    2
     3     3     4    1
     4     4     5    2
     5     4     6    1
     6     6     7   ar
     7     7     8    1
     8     7     9   ar
     9     9    10   ar
    10    10    11   ar
    11    11    12   ar
    12    12    13    1
    13    13    14    2
    14    13     2    1
    15    12     6   ar
    16     8    15    1
@<TRIPOS>MOLECULE
*****
 15 16 0 0 0
SMALL
GASTEIGER

@<TRIPOS>ATOM
      1 C          -6.2863  -15.1414   23.5743 C.3     1  UNL1        0.0345
      2 C          -7.5952  -15.8736   23.6043 C.2     1  UNL1        0.0202
      3 C          -7.9687  -16.6933   24.8037 C.2     1  UNL1        0.0410
      4 C          -9.2776  -17.4254   24.8337 C.2     1  UNL1        0.1984
      5 O          -9.6511  -18.2451   26.0330 O.2     1  UNL1       -0.2865
      6 C         -10.2129  -17.3378   23.6642 C.ar    1  UNL1        0.0756
      7 C         -11.5217  -18.0700   23.6942 C.ar    1  UNL1        0.1368
      8 O         -11.8953  -18.8897   24.8936 O.3     1  UNL1       -0.5054
      9 C         -12.4570  -17.9824   22.5248 C.ar    1  UNL1        0.0367
     10 C         -12.0835  -17.1626   21.3254 C.ar    1  UNL1        0.0032
     11 C         -10.7747  -16.4305   21.2954 C.ar    1  UNL1        0.0035
     12 C          -9.8394  -16.5181   22.4648 C.ar    1  UNL1        0.0446
     13 C          -8.5305  -15.7860   22.4349 C.2     1  UNL1        0.1919
     14 O          -8.1570  -14.9662   21.2355 O.2     1  UNL1       -0.2869
     15 H         -11.3110  -18.9444   25.6241 H       1  UNL1        0.2922
@<TRIPOS>BOND
     1     1     2    1
     2     2     3    2
     3     3     4    1
     4     4     5    2
     5     4     6    1
     6     6     7   ar
     7     7     8    1
     8     7     9   ar
     9     9    10   ar
    10    10    11   ar
    11    11    12   ar
    12    12    13    1
    13    13    14    2
    14    13     2    1
    15    12     6   ar
    16     8    15    1
@<TRIPOS>MOLECULE
*****
 15 16 0 0 0
SMALL
GASTEIGER

@<TRIPOS>ATOM
      1 C         -16.4401   -4.6970   19.7740 C.3     1  UNL1        0.0345
      2 C         -14.9545   -4.6414   19.5742 C.2     1  UNL1        0.0202
      3 C         -14.2412   -3.3224   19.6144 C.2     1  UNL1        0.0410
      4 C         -12.7556   -3.2667   19.4146 C.2     1  UNL1        0.1984
      5 O         -12.0424   -1.9478   19.4548 O.2     1  UNL1       -0.2865
      6 C         -11.9833   -4.5301   19.1746 C.ar    1  UNL1        0.0756
      7 C         -10.4977   -4.4744   18.9749 C.ar    1  UNL1        0.1368
      8 O          -9.7844   -3.1555   19.0151 O.3     1  UNL1       -0.5054
      9 C          -9.7254   -5.7377   18.7349 C.ar    1  UNL1        0.0367
     10 C         -10.4387   -7.0566   18.6947 C.ar    1  UNL1        0.0032
     11 C         -11.9242   -7.1123   18.8945 C.ar    1  UNL1        0.0035
     12 C         -12.6965   -5.8490   19.1345 C.ar    1  UNL1        0.0446
     13 C         -14.1822   -5.9046   19.3342 C.2     1  UNL1        0.1919
     14 O         -14.8954   -7.2236   19.2941 O.2     1  UNL1       -0.2869
     15 H         -10.2669   -2.3663   19.1649 H       1  UNL1        0.2922
@<TRIPOS>BOND
     1     1     2    1
     2     2     3    2
     3     3     4    1
     4     4     5    2
     5     4     6    1
     6     6     7   ar
     7     7     8    1
     8     7     9   ar
     9     9    10   ar
    10    10    11   ar
    11    11    12   ar
    12    12    13    1
    13    13    14    2
    14    13     2    1
    15    12     6   ar
    16     8    15    1
@<TRIPOS>MOLECULE
*****
 15 16 0 0 0
SMALL
GASTEIGER

@<TRIPOS>ATOM
      1 C          -7.1348  -15.8305   24.5467 C.3     1  UNL1        0.0345
      2 C          -8.1391  -16.4203   23.6013 C.2     1  UNL1        0.0202
      3 C          -9.5817  -16.0200   23.6940 C.2     1  UNL1        0.0410
      4 C         -10.5859  -16.6097   22.7486 C.2     1  UNL1        0.1984
      5 O         -12.0285  -16.2094   22.8413 O.2     1  UNL1       -0.2865
      6 C         -10.1475  -17.5998   21.7105 C.ar    1  UNL1        0.0756
      7 C         -11.1518  -18.1895   20.7651 C.ar    1  UNL1        0.1368
      8 O         -12.5944  -17.7892   20.8578 O.3     1  UNL1       -0.5054
      9 C         -10.7134  -19.1795   19.7271 C.ar    1  UNL1        0.0367
     10 C          -9.2708  -19.5799   19.6344 C.ar    1  UNL1        0.0032
     11 C          -8.2665  -18.9902   20.5797 C.ar    1  UNL1        0.0035
     12 C          -8.7049  -18.0001   21.6178 C.ar    1  UNL1        0.0446
     13 C          -7.7007  -17.4104   22.5632 C.2     1  UNL1        0.1919
     14 O          -6.2581  -17.8107   22.4705 O.2     1  UNL1       -0.2869
     15 H         -12.8682  -17.1707   21.5063 H       1  UNL1        0.2922
@<TRIPOS>BOND
     1     1     2    1
     2     2     3    2
     3     3     4    1
     4     4     5    2
     5     4     6    1
     6     6     7   ar
     7     7     8    1
     8     7     9   ar
     9     9    10   ar
    10    10    11   ar
    11    11    12   ar
    12    12    13    1
    13    13    14    2
    14    13     2    1
    15    12     6   ar
    16     8    15    1
