@<TRIPOS>MOLECULE
*****
 28 30 0 0 0
SMALL
GASTEIGER

@<TRIPOS>ATOM
      1 C          -8.1043  -17.9400   22.7701 C.ar    1  UNL1        0.0942
      2 C          -7.7654  -19.3117   22.2667 C.ar    1  UNL1        0.1078
      3 N          -6.3305  -19.7206   22.1124 N.ar    1  UNL1       -0.2119
      4 C          -5.2345  -18.7579   22.4615 C.ar    1  UNL1        0.2206
      5 N          -5.5734  -17.3861   22.9649 N.ar    1  UNL1       -0.2094
      6 C          -7.0083  -16.9772   23.1192 C.ar    1  UNL1        0.1613
      7 O          -9.9261  -16.5351   23.9773 O.2     1  UNL1       -0.2700
      8 C          -9.5392  -17.5310   22.9245 C.2     1  UNL1        0.2488
      9 N         -10.5872  -18.1179   22.0260 N.am    1  UNL1       -0.3008
     10 H         -10.3332  -18.7715   21.3350 H       1  UNL1        0.1497
     11 C         -12.0221  -17.7089   22.1804 C.3     1  UNL1        0.0896
     12 C         -12.7746  -18.0686   23.4271 C.3     1  UNL1        0.0196
     13 C         -14.1783  -17.8646   23.9148 C.3     1  UNL1        0.0017
     14 C         -13.8387  -18.5774   25.1902 C.3     1  UNL1        0.0001
     15 C         -12.4350  -18.7815   24.7025 C.3     1  UNL1        0.0017
     16 C          -7.3472  -15.6054   23.6226 C.3     1  UNL1        0.4351
     17 F          -7.6862  -14.2337   24.1261 F       1  UNL1       -0.1644
     18 F          -7.0466  -16.0457   25.0247 F       1  UNL1       -0.1644
     19 F          -7.6479  -15.1651   22.2206 F       1  UNL1       -0.1644
     20 N          -3.7996  -19.1669   22.3071 N.pl3   1  UNL1       -0.2825
     21 H          -3.3691  -19.7223   22.9966 H       1  UNL1        0.1551
     22 C          -3.0205  -18.7295   21.1022 C.ar    1  UNL1        0.0513
     23 C          -3.6779  -18.6996   19.7543 C.ar    1  UNL1        0.0147
     24 C          -2.8988  -18.2623   18.5494 C.ar    1  UNL1        0.0021
     25 C          -1.4623  -17.8549   18.6925 C.ar    1  UNL1        0.0115
     26 C          -0.8049  -17.8848   20.0404 C.ar    1  UNL1        0.0589
     27 CL          0.6316  -17.4774   20.1834 Cl      1  UNL1       -0.0822
     28 C          -1.5839  -18.3221   21.2453 C.ar    1  UNL1        0.0261
@<TRIPOS>BOND
     1     7     8    2
     2     8     9   am
     3     9    11    1
     4    11    12    1
     5    12    13    1
     6    13    14    1
     7    14    15    1
     8     8     1    1
     9     1     2   ar
    10     2     3   ar
    11     3     4   ar
    12     4    20    1
    13    20    22    1
    14    22    23   ar
    15    23    24   ar
    16    24    25   ar
    17    25    26   ar
    18    26    27    1
    19    26    28   ar
    20     4     5   ar
    21     5     6   ar
    22     6    16    1
    23    16    17    1
    24    16    18    1
    25    16    19    1
    26    15    12    1
    27     6     1   ar
    28    28    22   ar
    29     9    10    1
    30    20    21    1
@<TRIPOS>MOLECULE
*****
 28 30 0 0 0
SMALL
GASTEIGER

@<TRIPOS>ATOM
      1 C          -5.7644  -19.2371   20.4750 C.ar    1  UNL1        0.0942
      2 C          -6.9848  -19.6086   19.6859 C.ar    1  UNL1        0.1078
      3 N          -8.3178  -19.7043   20.3670 N.ar    1  UNL1       -0.2119
      4 C          -8.4304  -19.4286   21.8371 C.ar    1  UNL1        0.2206
      5 N          -7.2101  -19.0571   22.6262 N.ar    1  UNL1       -0.2094
      6 C          -5.8771  -18.9613   21.9451 C.ar    1  UNL1        0.1613
      7 O          -3.5390  -20.3447   19.7195 O.2     1  UNL1       -0.2700
      8 C          -4.4313  -19.1413   19.7940 C.2     1  UNL1        0.2488
      9 N          -3.9906  -17.8422   19.1874 N.am    1  UNL1       -0.3008
     10 H          -4.5763  -17.0523   19.2362 H       1  UNL1        0.1497
     11 C          -2.6575  -17.7464   18.5063 C.3     1  UNL1        0.0896
     12 C          -1.4056  -17.6197   19.3227 C.3     1  UNL1        0.0196
     13 C          -0.0894  -18.3378   19.3645 C.3     1  UNL1        0.0017
     14 C           0.3649  -17.4405   20.4774 C.3     1  UNL1        0.0001
     15 C          -0.9514  -16.7224   20.4356 C.3     1  UNL1        0.0017
     16 C          -4.6566  -18.5898   22.7342 C.3     1  UNL1        0.4351
     17 F          -3.4362  -18.2183   23.5232 F       1  UNL1       -0.1644
     18 F          -4.1991  -20.0179   22.6989 F       1  UNL1       -0.1644
     19 F          -5.1141  -17.1617   22.7695 F       1  UNL1       -0.1644
     20 N          -9.7635  -19.5243   22.5182 N.pl3   1  UNL1       -0.2825
     21 H          -9.9521  -20.2740   23.1279 H       1  UNL1        0.1551
     22 C         -10.8093  -18.4780   22.2702 C.ar    1  UNL1        0.0513
     23 C         -11.8962  -18.2502   23.2785 C.ar    1  UNL1        0.0147
     24 C         -12.9420  -17.2038   23.0305 C.ar    1  UNL1        0.0021
     25 C         -12.9009  -16.3853   21.7743 C.ar    1  UNL1        0.0115
     26 C         -11.8139  -16.6131   20.7660 C.ar    1  UNL1        0.0589
     27 CL        -11.7727  -15.7945   19.5097 Cl      1  UNL1       -0.0822
     28 C         -10.7682  -17.6594   21.0139 C.ar    1  UNL1        0.0261
@<TRIPOS>BOND
     1     7     8    2
     2     8     9   am
     3     9    11    1
     4    11    12    1
     5    12    13    1
     6    13    14    1
     7    14    15    1
     8     8     1    1
     9     1     2   ar
    10     2     3   ar
    11     3     4   ar
    12     4    20    1
    13    20    22    1
    14    22    23   ar
    15    23    24   ar
    16    24    25   ar
    17    25    26   ar
    18    26    27    1
    19    26    28   ar
    20     4     5   ar
    21     5     6   ar
    22     6    16    1
    23    16    17    1
    24    16    18    1
    25    16    19    1
    26    15    12    1
    27     6     1   ar
    28    28    22   ar
    29     9    10    1
    30    20    21    1
@<TRIPOS>MOLECULE
*****
 28 30 0 0 0
SMALL
GASTEIGER

@<TRIPOS>ATOM
      1 C          -9.2632  -18.5332   21.2086 C.ar    1  UNL1        0.0942
      2 C          -9.0576  -19.3371   19.9591 C.ar    1  UNL1        0.1078
      3 N          -7.7359  -19.9978   19.7013 N.ar    1  UNL1       -0.2119
      4 C          -6.6197  -19.8545   20.6931 C.ar    1  UNL1        0.2206
      5 N          -6.8253  -19.0506   21.9426 N.ar    1  UNL1       -0.2094
      6 C          -8.1470  -18.3900   22.2004 C.ar    1  UNL1        0.1613
      7 O         -10.8774  -16.5247   20.8766 O.2     1  UNL1       -0.2700
      8 C         -10.5850  -17.8725   21.4664 C.2     1  UNL1        0.2488
      9 N         -11.6142  -18.5596   22.3140 N.am    1  UNL1       -0.3008
     10 H         -11.4223  -19.4442   22.7011 H       1  UNL1        0.1497
     11 C         -12.9360  -17.8989   22.5719 C.3     1  UNL1        0.0896
     12 C         -13.6704  -18.1651   23.8524 C.3     1  UNL1        0.0196
     13 C         -13.2660  -18.4068   25.2765 C.3     1  UNL1        0.0017
     14 C         -14.7090  -18.5414   25.6634 C.3     1  UNL1        0.0001
     15 C         -15.1134  -18.2997   24.2393 C.3     1  UNL1        0.0017
     16 C          -8.3526  -17.5860   23.4500 C.3     1  UNL1        0.4351
     17 F          -8.5583  -16.7822   24.6996 F       1  UNL1       -0.1644
     18 F          -8.9626  -18.7820   24.1190 F       1  UNL1       -0.1644
     19 F          -7.7427  -16.3901   22.7810 F       1  UNL1       -0.1644
     20 N          -5.2979  -20.5152   20.4352 N.pl3   1  UNL1       -0.2825
     21 H          -5.2626  -21.4709   20.2014 H       1  UNL1        0.1551
     22 C          -4.0300  -19.7198   20.5337 C.ar    1  UNL1        0.0513
     23 C          -3.3290  -19.5861   21.8530 C.ar    1  UNL1        0.0147
     24 C          -2.0610  -18.7906   21.9514 C.ar    1  UNL1        0.0021
     25 C          -1.4941  -18.1290   20.7305 C.ar    1  UNL1        0.0115
     26 C          -2.1951  -18.2628   19.4111 C.ar    1  UNL1        0.0589
     27 CL         -1.6281  -17.6012   18.1901 Cl      1  UNL1       -0.0822
     28 C          -3.4630  -19.0582   19.3127 C.ar    1  UNL1        0.0261
@<TRIPOS>BOND
     1     7     8    2
     2     8     9   am
     3     9    11    1
     4    11    12    1
     5    12    13    1
     6    13    14    1
     7    14    15    1
     8     8     1    1
     9     1     2   ar
    10     2     3   ar
    11     3     4   ar
    12     4    20    1
    13    20    22    1
    14    22    23   ar
    15    23    24   ar
    16    24    25   ar
    17    25    26   ar
    18    26    27    1
    19    26    28   ar
    20     4     5   ar
    21     5     6   ar
    22     6    16    1
    23    16    17    1
    24    16    18    1
    25    16    19    1
    26    15    12    1
    27     6     1   ar
    28    28    22   ar
    29     9    10    1
    30    20    21    1
@<TRIPOS>MOLECULE
*****
 28 30 0 0 0
SMALL
GASTEIGER

@<TRIPOS>ATOM
      1 C          -5.4465  -18.2896   22.1767 C.ar    1  UNL1        0.0942
      2 C          -5.4820  -17.1299   23.1273 C.ar    1  UNL1        0.1078
      3 N          -6.7883  -16.6769   23.7091 N.ar    1  UNL1       -0.2119
      4 C          -8.0589  -17.3835   23.3402 C.ar    1  UNL1        0.2206
      5 N          -8.0233  -18.5432   22.3895 N.ar    1  UNL1       -0.2094
      6 C          -6.7171  -18.9962   21.8078 C.ar    1  UNL1        0.1613
      7 O          -3.1558  -19.4849   22.4493 O.2     1  UNL1       -0.2700
      8 C          -4.1402  -18.7426   21.5948 C.2     1  UNL1        0.2488
      9 N          -3.8183  -18.4535   20.1586 N.am    1  UNL1       -0.3008
     10 H          -4.4644  -17.9663   19.5978 H       1  UNL1        0.1497
     11 C          -2.5120  -18.9065   19.5768 C.3     1  UNL1        0.0896
     12 C          -1.2643  -18.1121   19.8258 C.3     1  UNL1        0.0196
     13 C          -0.9652  -16.7602   20.4027 C.3     1  UNL1        0.0017
     14 C           0.5002  -16.9886   20.1780 C.3     1  UNL1        0.0001
     15 C           0.2011  -18.3405   19.6011 C.3     1  UNL1        0.0017
     16 C          -6.6815  -20.1560   20.8570 C.3     1  UNL1        0.4351
     17 F          -6.6458  -21.3157   19.9064 F       1  UNL1       -0.1644
     18 F          -6.4505  -21.0913   22.0067 F       1  UNL1       -0.1644
     19 F          -6.9124  -19.2207   19.7074 F       1  UNL1       -0.1644
     20 N          -9.3652  -16.9305   23.9220 N.pl3   1  UNL1       -0.2825
     21 H          -9.3967  -16.5649   24.8356 H       1  UNL1        0.1551
     22 C         -10.6233  -17.0344   23.1119 C.ar    1  UNL1        0.0513
     23 C         -11.7973  -17.8010   23.6449 C.ar    1  UNL1        0.0147
     24 C         -13.0555  -17.9050   22.8348 C.ar    1  UNL1        0.0021
     25 C         -13.1396  -17.2424   21.4917 C.ar    1  UNL1        0.0115
     26 C         -11.9656  -16.4758   20.9587 C.ar    1  UNL1        0.0589
     27 CL        -12.0497  -15.8132   19.6157 Cl      1  UNL1       -0.0822
     28 C         -10.7075  -16.3718   21.7688 C.ar    1  UNL1        0.0261
@<TRIPOS>BOND
     1     7     8    2
     2     8     9   am
     3     9    11    1
     4    11    12    1
     5    12    13    1
     6    13    14    1
     7    14    15    1
     8     8     1    1
     9     1     2   ar
    10     2     3   ar
    11     3     4   ar
    12     4    20    1
    13    20    22    1
    14    22    23   ar
    15    23    24   ar
    16    24    25   ar
    17    25    26   ar
    18    26    27    1
    19    26    28   ar
    20     4     5   ar
    21     5     6   ar
    22     6    16    1
    23    16    17    1
    24    16    18    1
    25    16    19    1
    26    15    12    1
    27     6     1   ar
    28    28    22   ar
    29     9    10    1
    30    20    21    1
@<TRIPOS>MOLECULE
*****
 28 30 0 0 0
SMALL
GASTEIGER

@<TRIPOS>ATOM
      1 C          -7.6984  -17.3762   22.9777 C.ar    1  UNL1        0.0942
      2 C          -6.5179  -16.5445   23.3834 C.ar    1  UNL1        0.1078
      3 N          -5.1269  -17.0694   23.1847 N.ar    1  UNL1       -0.2119
      4 C          -4.9163  -18.4260   22.5802 C.ar    1  UNL1        0.2206
      5 N          -6.0968  -19.2577   22.1745 N.ar    1  UNL1       -0.2094
      6 C          -7.4878  -18.7328   22.3732 C.ar    1  UNL1        0.1613
      7 O          -9.6529  -16.7253   24.5608 O.2     1  UNL1       -0.2700
      8 C          -9.0895  -16.8513   23.1764 C.2     1  UNL1        0.2488
      9 N          -9.9171  -16.4525   21.9907 N.am    1  UNL1       -0.3008
     10 H          -9.5473  -16.5353   21.0820 H       1  UNL1        0.1497
     11 C         -11.3082  -15.9277   22.1894 C.3     1  UNL1        0.0896
     12 C         -12.4275  -16.8728   22.5117 C.3     1  UNL1        0.0196
     13 C         -13.1433  -17.2810   23.7651 C.3     1  UNL1        0.0017
     14 C         -14.0104  -18.2094   22.9675 C.3     1  UNL1        0.0001
     15 C         -13.2947  -17.8011   21.7141 C.3     1  UNL1        0.0017
     16 C          -8.6684  -19.5645   21.9675 C.3     1  UNL1        0.4351
     17 F          -9.8489  -20.3961   21.5617 F       1  UNL1       -0.1644
     18 F          -8.6184  -18.9651   20.5934 F       1  UNL1       -0.1644
     19 F          -8.7185  -20.1639   23.3416 F       1  UNL1       -0.1644
     20 N          -3.5252  -18.9508   22.3815 N.pl3   1  UNL1       -0.2825
     21 H          -3.1147  -19.5284   23.0650 H       1  UNL1        0.1551
     22 C          -2.7596  -18.5957   21.1415 C.ar    1  UNL1        0.0513
     23 C          -3.4269  -18.6723   19.8003 C.ar    1  UNL1        0.0147
     24 C          -2.6612  -18.3171   18.5603 C.ar    1  UNL1        0.0021
     25 C          -1.2283  -17.8853   18.6615 C.ar    1  UNL1        0.0115
     26 C          -0.5610  -17.8087   20.0027 C.ar    1  UNL1        0.0589
     27 CL          0.8719  -17.3770   20.1039 Cl      1  UNL1       -0.0822
     28 C          -1.3266  -18.1639   21.2427 C.ar    1  UNL1        0.0261
@<TRIPOS>BOND
     1     7     8    2
     2     8     9   am
     3     9    11    1
     4    11    12    1
     5    12    13    1
     6    13    14    1
     7    14    15    1
     8     8     1    1
     9     1     2   ar
    10     2     3   ar
    11     3     4   ar
    12     4    20    1
    13    20    22    1
    14    22    23   ar
    15    23    24   ar
    16    24    25   ar
    17    25    26   ar
    18    26    27    1
    19    26    28   ar
    20     4     5   ar
    21     5     6   ar
    22     6    16    1
    23    16    17    1
    24    16    18    1
    25    16    19    1
    26    15    12    1
    27     6     1   ar
    28    28    22   ar
    29     9    10    1
    30    20    21    1
@<TRIPOS>MOLECULE
*****
 28 30 0 0 0
SMALL
GASTEIGER

@<TRIPOS>ATOM
      1 C          -5.7186  -18.7396   21.9040 C.ar    1  UNL1        0.0942
      2 C          -6.7409  -18.0666   22.7711 C.ar    1  UNL1        0.1078
      3 N          -8.2015  -18.3220   22.5446 N.ar    1  UNL1       -0.2119
      4 C          -8.6398  -19.2504   21.4510 C.ar    1  UNL1        0.2206
      5 N          -7.6175  -19.9235   20.5839 N.ar    1  UNL1       -0.2094
      6 C          -6.1569  -19.6681   20.8104 C.ar    1  UNL1        0.1613
      7 O          -3.3804  -19.5753   22.6686 O.2     1  UNL1       -0.2700
      8 C          -4.2579  -18.4843   22.1304 C.2     1  UNL1        0.2488
      9 N          -3.6747  -17.1379   21.8186 N.am    1  UNL1       -0.3008
     10 H          -4.2507  -16.4219   21.4654 H       1  UNL1        0.1497
     11 C          -2.2140  -16.8825   22.0451 C.3     1  UNL1        0.0896
     12 C          -1.2076  -17.3319   21.0277 C.3     1  UNL1        0.0196
     13 C           0.0428  -16.7457   20.4420 C.3     1  UNL1        0.0017
     14 C           0.2158  -17.9673   19.5889 C.3     1  UNL1        0.0001
     15 C          -1.0345  -18.5534   20.1746 C.3     1  UNL1        0.0017
     16 C          -5.1345  -20.3411   19.9433 C.3     1  UNL1        0.4351
     17 F          -4.1122  -21.0142   19.0762 F       1  UNL1       -0.1644
     18 F          -5.5291  -21.6721   20.5113 F       1  UNL1       -0.1644
     19 F          -4.7400  -19.0101   19.3752 F       1  UNL1       -0.1644
     20 N         -10.1005  -19.5058   21.2246 N.pl3   1  UNL1       -0.2825
     21 H         -10.3931  -20.3410   20.7932 H       1  UNL1        0.1551
     22 C         -11.1153  -18.4887   21.6554 C.ar    1  UNL1        0.0513
     23 C         -11.2250  -17.1829   20.9255 C.ar    1  UNL1        0.0147
     24 C         -12.2399  -16.1657   21.3563 C.ar    1  UNL1        0.0021
     25 C         -13.1450  -16.4545   22.5171 C.ar    1  UNL1        0.0115
     26 C         -13.0353  -17.7603   23.2470 C.ar    1  UNL1        0.0589
     27 CL        -13.9405  -18.0490   24.4077 Cl      1  UNL1       -0.0822
     28 C         -12.0205  -18.7774   22.8162 C.ar    1  UNL1        0.0261
@<TRIPOS>BOND
     1     7     8    2
     2     8     9   am
     3     9    11    1
     4    11    12    1
     5    12    13    1
     6    13    14    1
     7    14    15    1
     8     8     1    1
     9     1     2   ar
    10     2     3   ar
    11     3     4   ar
    12     4    20    1
    13    20    22    1
    14    22    23   ar
    15    23    24   ar
    16    24    25   ar
    17    25    26   ar
    18    26    27    1
    19    26    28   ar
    20     4     5   ar
    21     5     6   ar
    22     6    16    1
    23    16    17    1
    24    16    18    1
    25    16    19    1
    26    15    12    1
    27     6     1   ar
    28    28    22   ar
    29     9    10    1
    30    20    21    1
@<TRIPOS>MOLECULE
*****
 28 30 0 0 0
SMALL
GASTEIGER

@<TRIPOS>ATOM
      1 C          -5.3919  -17.5915   22.7395 C.ar    1  UNL1        0.0942
      2 C          -5.6196  -16.4595   23.6969 C.ar    1  UNL1        0.1078
      3 N          -7.0033  -16.1667   24.1965 N.ar    1  UNL1       -0.2119
      4 C          -8.1592  -17.0059   23.7387 C.ar    1  UNL1        0.2206
      5 N          -7.9315  -18.1379   22.7813 N.ar    1  UNL1       -0.2094
      6 C          -6.5478  -18.4307   22.2817 C.ar    1  UNL1        0.1613
      7 O          -3.0605  -16.7578   21.9522 O.2     1  UNL1       -0.2700
      8 C          -4.0081  -17.8844   22.2398 C.2     1  UNL1        0.2488
      9 N          -3.5721  -19.3038   22.0278 N.am    1  UNL1       -0.3008
     10 H          -4.1941  -20.0433   22.2166 H       1  UNL1        0.1497
     11 C          -2.1884  -19.5967   21.5281 C.3     1  UNL1        0.0896
     12 C          -1.6472  -18.8562   20.3412 C.3     1  UNL1        0.0196
     13 C          -0.3504  -18.1757   20.0166 C.3     1  UNL1        0.0017
     14 C          -0.8818  -17.8090   18.6627 C.3     1  UNL1        0.0001
     15 C          -2.1785  -18.4895   18.9873 C.3     1  UNL1        0.0017
     16 C          -6.3200  -19.5628   21.3243 C.3     1  UNL1        0.4351
     17 F          -6.0922  -20.6948   20.3669 F       1  UNL1       -0.1644
     18 F          -6.2778  -18.5896   20.1837 F       1  UNL1       -0.1644
     19 F          -6.3622  -20.5360   22.4649 F       1  UNL1       -0.1644
     20 N          -9.5429  -16.7130   24.2384 N.pl3   1  UNL1       -0.2825
     21 H          -9.6708  -16.3217   25.1327 H       1  UNL1        0.1551
     22 C         -10.7318  -17.0164   23.3755 C.ar    1  UNL1        0.0513
     23 C         -10.6596  -16.7936   21.8939 C.ar    1  UNL1        0.0147
     24 C         -11.8485  -17.0970   21.0310 C.ar    1  UNL1        0.0021
     25 C         -13.1095  -17.6231   21.6498 C.ar    1  UNL1        0.0115
     26 C         -13.1818  -17.8459   23.1314 C.ar    1  UNL1        0.0589
     27 CL        -14.4428  -18.3720   23.7501 Cl      1  UNL1       -0.0822
     28 C         -11.9929  -17.5425   23.9942 C.ar    1  UNL1        0.0261
@<TRIPOS>BOND
     1     7     8    2
     2     8     9   am
     3     9    11    1
     4    11    12    1
     5    12    13    1
     6    13    14    1
     7    14    15    1
     8     8     1    1
     9     1     2   ar
    10     2     3   ar
    11     3     4   ar
    12     4    20    1
    13    20    22    1
    14    22    23   ar
    15    23    24   ar
    16    24    25   ar
    17    25    26   ar
    18    26    27    1
    19    26    28   ar
    20     4     5   ar
    21     5     6   ar
    22     6    16    1
    23    16    17    1
    24    16    18    1
    25    16    19    1
    26    15    12    1
    27     6     1   ar
    28    28    22   ar
    29     9    10    1
    30    20    21    1
@<TRIPOS>MOLECULE
*****
 28 30 0 0 0
SMALL
GASTEIGER

@<TRIPOS>ATOM
      1 C         -13.0376   -4.9260   18.3355 C.ar    1  UNL1        0.0942
      2 C         -14.4950   -5.0414   18.6707 C.ar    1  UNL1        0.1078
      3 N         -15.0891   -6.3832   18.9817 N.ar    1  UNL1       -0.2119
      4 C         -14.2257   -7.6095   18.9574 C.ar    1  UNL1        0.2206
      5 N         -12.7682   -7.4941   18.6221 N.ar    1  UNL1       -0.2094
      6 C         -12.1742   -6.1523   18.3112 C.ar    1  UNL1        0.1613
      7 O         -12.2069   -3.1808   16.5992 O.2     1  UNL1       -0.2700
      8 C         -12.4435   -3.5842   18.0245 C.2     1  UNL1        0.2488
      9 N         -12.0860   -2.6458   19.1387 N.am    1  UNL1       -0.3008
     10 H         -12.2413   -2.9105   20.0742 H       1  UNL1        0.1497
     11 C         -11.4919   -1.3040   18.8278 C.3     1  UNL1        0.0896
     12 C         -12.3582   -0.2090   18.2796 C.3     1  UNL1        0.0196
     13 C         -12.1507    0.9317   17.3279 C.3     1  UNL1        0.0017
     14 C         -13.5833    1.3396   17.5044 C.3     1  UNL1        0.0001
     15 C         -13.7908    0.1989   18.4562 C.3     1  UNL1        0.0017
     16 C         -10.7166   -6.0368   17.9759 C.3     1  UNL1        0.4351
     17 F          -9.2592   -5.9214   17.6407 F       1  UNL1       -0.1644
     18 F         -10.4020   -5.8046   19.4240 F       1  UNL1       -0.1644
     19 F         -11.0313   -6.2691   16.5278 F       1  UNL1       -0.1644
     20 N         -14.8198   -8.9513   19.2683 N.pl3   1  UNL1       -0.2825
     21 H         -14.2399   -9.6896   19.5649 H       1  UNL1        0.1551
     22 C         -16.2973   -9.1683   19.1274 C.ar    1  UNL1        0.0513
     23 C         -16.8274  -10.0176   18.0104 C.ar    1  UNL1        0.0147
     24 C         -18.3050  -10.2345   17.8695 C.ar    1  UNL1        0.0021
     25 C         -19.2523   -9.6021   18.8455 C.ar    1  UNL1        0.0115
     26 C         -18.7222   -8.7527   19.9624 C.ar    1  UNL1        0.0589
     27 CL        -19.6695   -8.1203   20.9384 Cl      1  UNL1       -0.0822
     28 C         -17.2447   -8.5358   20.1034 C.ar    1  UNL1        0.0261
@<TRIPOS>BOND
     1     7     8    2
     2     8     9   am
     3     9    11    1
     4    11    12    1
     5    12    13    1
     6    13    14    1
     7    14    15    1
     8     8     1    1
     9     1     2   ar
    10     2     3   ar
    11     3     4   ar
    12     4    20    1
    13    20    22    1
    14    22    23   ar
    15    23    24   ar
    16    24    25   ar
    17    25    26   ar
    18    26    27    1
    19    26    28   ar
    20     4     5   ar
    21     5     6   ar
    22     6    16    1
    23    16    17    1
    24    16    18    1
    25    16    19    1
    26    15    12    1
    27     6     1   ar
    28    28    22   ar
    29     9    10    1
    30    20    21    1
@<TRIPOS>MOLECULE
*****
 28 30 0 0 0
SMALL
GASTEIGER

@<TRIPOS>ATOM
      1 C           6.0326   -2.4932   19.3351 C.ar    1  UNL1        0.0942
      2 C           7.4112   -1.9760   19.6210 C.ar    1  UNL1        0.1078
      3 N           8.3918   -2.8289   20.3700 N.ar    1  UNL1       -0.2119
      4 C           7.9937   -4.1990   20.8331 C.ar    1  UNL1        0.2206
      5 N           6.6150   -4.7162   20.5472 N.ar    1  UNL1       -0.2094
      6 C           5.6345   -3.8633   19.7982 C.ar    1  UNL1        0.1613
      7 O           4.9328   -1.7668   17.0961 O.2     1  UNL1       -0.2700
      8 C           5.0519   -1.6403   18.5860 C.2     1  UNL1        0.2488
      9 N           4.1905   -0.6611   19.3269 N.am    1  UNL1       -0.3008
     10 H           4.2687   -0.5781   20.3048 H       1  UNL1        0.1497
     11 C           3.2098    0.1918   18.5778 C.3     1  UNL1        0.0896
     12 C           1.8907    0.5410   19.2005 C.3     1  UNL1        0.0196
     13 C           0.9708    1.7245   19.1430 C.3     1  UNL1        0.0017
     14 C           0.0251    1.0349   20.0812 C.3     1  UNL1        0.0001
     15 C           0.9449   -0.1485   20.1387 C.3     1  UNL1        0.0017
     16 C           4.2557   -4.3805   19.5122 C.3     1  UNL1        0.4351
     17 F           2.8771   -4.8976   19.2262 F       1  UNL1       -0.1644
     18 F           4.7687   -5.0673   18.2814 F       1  UNL1       -0.1644
     19 F           3.7427   -3.6936   20.7431 F       1  UNL1       -0.1644
     20 N           8.9743   -5.0519   21.5822 N.pl3   1  UNL1       -0.2825
     21 H           9.8703   -5.2155   21.2086 H       1  UNL1        0.1551
     22 C           8.5897   -5.6554   22.9004 C.ar    1  UNL1        0.0513
     23 C           8.9332   -7.0845   23.1998 C.ar    1  UNL1        0.0147
     24 C           8.5486   -7.6880   24.5181 C.ar    1  UNL1        0.0021
     25 C           7.8205   -6.8624   25.5370 C.ar    1  UNL1        0.0115
     26 C           7.4770   -5.4333   25.2377 C.ar    1  UNL1        0.0589
     27 CL          6.7489   -4.6077   26.2566 Cl      1  UNL1       -0.0822
     28 C           7.8616   -4.8298   23.9194 C.ar    1  UNL1        0.0261
@<TRIPOS>BOND
     1     7     8    2
     2     8     9   am
     3     9    11    1
     4    11    12    1
     5    12    13    1
     6    13    14    1
     7    14    15    1
     8     8     1    1
     9     1     2   ar
    10     2     3   ar
    11     3     4   ar
    12     4    20    1
    13    20    22    1
    14    22    23   ar
    15    23    24   ar
    16    24    25   ar
    17    25    26   ar
    18    26    27    1
    19    26    28   ar
    20     4     5   ar
    21     5     6   ar
    22     6    16    1
    23    16    17    1
    24    16    18    1
    25    16    19    1
    26    15    12    1
    27     6     1   ar
    28    28    22   ar
    29     9    10    1
    30    20    21    1
