@<TRIPOS>MOLECULE
*****
 45 50 0 0 0
SMALL
GASTEIGER

@<TRIPOS>ATOM
      1 N           2.9271    0.8628   31.4984 N.am    1  UNL1       -0.2222
      2 C           2.3819    0.8276   30.1014 C.2     1  UNL1        0.3219
      3 O           2.7782   -0.1383   29.0243 O.2     1  UNL1       -0.2512
      4 N           1.3707    1.9278   29.9706 N.am    1  UNL1       -0.1907
      5 C           1.2910    2.6430   31.2867 C.2     1  UNL1        0.2529
      6 O           0.4050    3.8113   31.6031 O.2     1  UNL1       -0.2724
      7 C           2.2530    1.9848   32.2310 C.3     1  UNL1        0.1391
      8 C           3.2510    1.2293   33.0574 C.3     1  UNL1        0.0449
      9 C           3.4958    1.6238   34.4837 C.3     1  UNL1        0.0746
     10 N           2.7425    2.7739   35.0836 N.3     1  UNL1       -0.2676
     11 C           1.7444    3.5294   34.2572 C.3     1  UNL1        0.0746
     12 C           1.4997    3.1349   32.8309 C.3     1  UNL1        0.0449
     13 C           6.4547   -0.6224   32.5472 C.ar    1  UNL1        0.2293
     14 C           5.4174    0.3020   31.9821 C.ar    1  UNL1        0.0924
     15 C           3.9644   -0.0616   32.0635 C.ar    1  UNL1        0.1453
     16 N           3.5488   -1.3497   32.7102 N.ar    1  UNL1       -0.2084
     17 C           4.5860   -2.2741   33.2753 C.ar    1  UNL1        0.2027
     18 N           6.0390   -1.9105   33.1938 N.ar    1  UNL1       -0.1892
     19 C           8.8553   -0.7123   33.5365 C.3     1  UNL1        0.2542
     20 O           7.9077   -0.2589   32.4658 O.3     1  UNL1       -0.4560
     21 C           0.5784    2.2553   28.7399 C.ar    1  UNL1        0.0622
     22 C          -0.1425    1.1674   28.0004 C.ar    1  UNL1        0.0154
     23 C          -0.9348    1.4949   26.7696 C.ar    1  UNL1        0.0013
     24 C          -1.0064    2.9104   26.2782 C.ar    1  UNL1        0.0001
     25 C          -0.2856    3.9984   27.0177 C.ar    1  UNL1        0.0013
     26 C           0.5068    3.6708   28.2485 C.ar    1  UNL1        0.0154
     27 C          -1.7988    3.2379   25.0474 C.ar    1  UNL1        0.0000
     28 C          -3.2659    3.5306   25.1558 C.ar    1  UNL1        0.0001
     29 C          -4.0583    3.8582   23.9250 C.ar    1  UNL1        0.0045
     30 C          -3.3834    3.8929   22.5858 C.ar    1  UNL1        0.0536
     31 C          -1.9163    3.6002   22.4774 C.ar    1  UNL1        0.0045
     32 C          -1.1239    3.2727   23.7082 C.ar    1  UNL1        0.0001
     33 C          -4.1758    4.2205   21.3550 C.2     1  UNL1        0.2491
     34 O          -4.7070    3.1167   20.4892 O.2     1  UNL1       -0.2699
     35 N          -4.4370    5.6518   20.9900 N.am    1  UNL1       -0.2726
     36 C          -5.2293    5.9792   19.7591 C.3     1  UNL1        0.1152
     37 C          -3.9058    6.7555   21.8557 C.3     1  UNL1        0.1152
     38 C           2.9873    3.1684   36.5100 C.3     1  UNL1        0.1183
     39 C           2.2325    2.4916   37.6154 C.ar    1  UNL1        0.0712
     40 N           0.9425    3.0758   38.1100 N.ar    1  UNL1       -0.2471
     41 C           0.1877    2.3989   39.2155 C.ar    1  UNL1        0.0985
     42 C           0.7229    1.1379   39.8265 C.ar    1  UNL1        0.0203
     43 C           2.0129    0.5536   39.3319 C.ar    1  UNL1       -0.0015
     44 C           2.7677    1.2305   38.2264 C.ar    1  UNL1       -0.0069
     45 C           4.0577    0.6463   37.7318 C.3     1  UNL1        0.0323
@<TRIPOS>BOND
     1    19    20    1
     2    20    13    1
     3    13    14   ar
     4    14    15   ar
     5    15     1    1
     6     1     2   am
     7     2     3    2
     8     2     4   am
     9     4    21    1
    10    21    22   ar
    11    22    23   ar
    12    23    24   ar
    13    24    27    1
    14    27    28   ar
    15    28    29   ar
    16    29    30   ar
    17    30    33    1
    18    33    34    2
    19    33    35   am
    20    35    36    1
    21    35    37    1
    22    30    31   ar
    23    31    32   ar
    24    24    25   ar
    25    25    26   ar
    26     4     5   am
    27     5     6    2
    28     5     7    1
    29     7     8    1
    30     8     9    1
    31     9    10    1
    32    10    38    1
    33    38    39    1
    34    39    40   ar
    35    40    41   ar
    36    41    42   ar
    37    42    43   ar
    38    43    44   ar
    39    44    45    1
    40    10    11    1
    41    11    12    1
    42    15    16   ar
    43    16    17   ar
    44    17    18   ar
    45    18    13   ar
    46     7     1    1
    47    44    39   ar
    48    26    21   ar
    49    12     7    1
    50    32    27   ar
@<TRIPOS>MOLECULE
*****
 45 50 0 0 0
SMALL
GASTEIGER

@<TRIPOS>ATOM
      1 N           3.5599   -1.2330   21.6916 N.am    1  UNL1       -0.2222
      2 C           2.3498   -0.3474   21.7323 C.2     1  UNL1        0.3219
      3 O           1.4603   -0.0159   20.5708 O.2     1  UNL1       -0.2512
      4 N           2.1855    0.1486   23.1384 N.am    1  UNL1       -0.1907
      5 C           3.2939   -0.4305   23.9667 C.2     1  UNL1        0.2529
      6 O           3.5143   -0.1968   25.4318 O.2     1  UNL1       -0.2724
      7 C           4.1434   -1.2844   23.0725 C.3     1  UNL1        0.1391
      8 C           4.8951   -2.0989   22.0618 C.3     1  UNL1        0.0449
      9 C           6.1139   -2.8689   22.4759 C.3     1  UNL1        0.0746
     10 N           6.5810   -2.8244   23.9006 N.3     1  UNL1       -0.2676
     11 C           5.8293   -2.0099   24.9113 C.3     1  UNL1        0.0746
     12 C           4.6105   -1.2399   24.4972 C.3     1  UNL1        0.0449
     13 C           5.5956   -1.9585   18.3630 C.ar    1  UNL1        0.2293
     14 C           5.0627   -1.2489   19.5723 C.ar    1  UNL1        0.0924
     15 C           4.0928   -1.9426   20.4823 C.ar    1  UNL1        0.1453
     16 N           3.6558   -3.3460   20.1829 N.ar    1  UNL1       -0.2084
     17 C           4.1887   -4.0557   18.9737 C.ar    1  UNL1        0.2027
     18 N           5.1586   -3.3619   18.0637 N.ar    1  UNL1       -0.1892
     19 C           6.3570    0.1764   17.0933 C.3     1  UNL1        0.2542
     20 O           6.5655   -1.2648   17.4531 O.3     1  UNL1       -0.4560
     21 C           1.1029    1.0630   23.6299 C.ar    1  UNL1        0.0622
     22 C           0.6111    2.1797   22.7576 C.ar    1  UNL1        0.0154
     23 C          -0.4716    3.0942   23.2491 C.ar    1  UNL1        0.0013
     24 C          -1.0625    2.8919   24.6129 C.ar    1  UNL1        0.0001
     25 C          -0.5706    1.7751   25.4853 C.ar    1  UNL1        0.0013
     26 C           0.5121    0.8607   24.9937 C.ar    1  UNL1        0.0154
     27 C          -2.1451    3.8064   25.1044 C.ar    1  UNL1        0.0000
     28 C          -2.4116    5.1017   24.3965 C.ar    1  UNL1        0.0001
     29 C          -3.4942    6.0162   24.8880 C.ar    1  UNL1        0.0045
     30 C          -4.3104    5.6352   26.0875 C.ar    1  UNL1        0.0536
     31 C          -4.0440    4.3399   26.7954 C.ar    1  UNL1        0.0045
     32 C          -2.9614    3.4255   26.3040 C.ar    1  UNL1        0.0001
     33 C          -5.3931    6.5497   26.5790 C.2     1  UNL1        0.2491
     34 O          -5.0993    7.5464   27.6608 O.2     1  UNL1       -0.2699
     35 N          -6.7697    6.4674   25.9888 N.am    1  UNL1       -0.2726
     36 C          -7.8523    7.3819   26.4803 C.3     1  UNL1        0.1152
     37 C          -7.0636    5.4708   24.9071 C.3     1  UNL1        0.1152
     38 C           7.7999   -3.5945   24.3147 C.3     1  UNL1        0.1183
     39 C           7.6587   -4.9814   24.8682 C.ar    1  UNL1        0.0712
     40 N           6.9693   -5.1977   26.1827 N.ar    1  UNL1       -0.2471
     41 C           6.8281   -6.5848   26.7361 C.ar    1  UNL1        0.0985
     42 C           7.3762   -7.7554   25.9751 C.ar    1  UNL1        0.0203
     43 C           8.0656   -7.5390   24.6606 C.ar    1  UNL1       -0.0015
     44 C           8.2069   -6.1521   24.1071 C.ar    1  UNL1       -0.0069
     45 C           8.8963   -5.9357   22.7926 C.3     1  UNL1        0.0323
@<TRIPOS>BOND
     1    19    20    1
     2    20    13    1
     3    13    14   ar
     4    14    15   ar
     5    15     1    1
     6     1     2   am
     7     2     3    2
     8     2     4   am
     9     4    21    1
    10    21    22   ar
    11    22    23   ar
    12    23    24   ar
    13    24    27    1
    14    27    28   ar
    15    28    29   ar
    16    29    30   ar
    17    30    33    1
    18    33    34    2
    19    33    35   am
    20    35    36    1
    21    35    37    1
    22    30    31   ar
    23    31    32   ar
    24    24    25   ar
    25    25    26   ar
    26     4     5   am
    27     5     6    2
    28     5     7    1
    29     7     8    1
    30     8     9    1
    31     9    10    1
    32    10    38    1
    33    38    39    1
    34    39    40   ar
    35    40    41   ar
    36    41    42   ar
    37    42    43   ar
    38    43    44   ar
    39    44    45    1
    40    10    11    1
    41    11    12    1
    42    15    16   ar
    43    16    17   ar
    44    17    18   ar
    45    18    13   ar
    46     7     1    1
    47    44    39   ar
    48    26    21   ar
    49    12     7    1
    50    32    27   ar
@<TRIPOS>MOLECULE
*****
 45 50 0 0 0
SMALL
GASTEIGER

@<TRIPOS>ATOM
      1 N           4.2417   -0.0537   31.3135 N.am    1  UNL1       -0.2222
      2 C           3.4859    0.1688   30.0370 C.2     1  UNL1        0.3219
      3 O           3.8275   -0.4130   28.6973 O.2     1  UNL1       -0.2512
      4 N           2.3286    1.0752   30.3356 N.am    1  UNL1       -0.1907
      5 C           2.3691    1.4128   31.7965 C.2     1  UNL1        0.2529
      6 O           1.3979    2.2935   32.5252 O.2     1  UNL1       -0.2724
      7 C           3.5515    0.7151   32.4009 C.3     1  UNL1        0.1391
      8 C           4.7631   -0.0395   32.8619 C.3     1  UNL1        0.0449
      9 C           5.1817    0.0211   34.3010 C.3     1  UNL1        0.0746
     10 N           4.3888    0.8363   35.2791 N.3     1  UNL1       -0.2676
     11 C           3.1772    1.5909   34.8181 C.3     1  UNL1        0.0746
     12 C           2.7586    1.5303   33.3790 C.3     1  UNL1        0.0449
     13 C           6.5743   -3.1950   31.9778 C.ar    1  UNL1        0.2293
     14 C           5.3442   -2.3517   31.8170 C.ar    1  UNL1        0.0924
     15 C           5.4718   -0.8970   31.4743 C.ar    1  UNL1        0.1453
     16 N           6.8294   -0.2856   31.2923 N.ar    1  UNL1       -0.2084
     17 C           8.0594   -1.1288   31.4531 C.ar    1  UNL1        0.2027
     18 N           7.9319   -2.5836   31.7958 N.ar    1  UNL1       -0.1892
     19 C           7.0906   -5.6852   31.4468 C.3     1  UNL1        0.2542
     20 O           6.4468   -4.6497   32.3205 O.3     1  UNL1       -0.4560
     21 C           1.3097    1.5589   29.3468 C.ar    1  UNL1        0.0622
     22 C           0.1154    0.7104   29.0246 C.ar    1  UNL1        0.0154
     23 C          -0.9035    1.1941   28.0358 C.ar    1  UNL1        0.0013
     24 C          -0.7283    2.5264   27.3693 C.ar    1  UNL1        0.0001
     25 C           0.4660    3.3750   27.6915 C.ar    1  UNL1        0.0013
     26 C           1.4849    2.8912   28.6803 C.ar    1  UNL1        0.0154
     27 C          -1.7473    3.0102   26.3805 C.ar    1  UNL1        0.0000
     28 C          -3.0989    3.4563   26.8538 C.ar    1  UNL1        0.0001
     29 C          -4.1178    3.9401   25.8650 C.ar    1  UNL1        0.0045
     30 C          -3.7851    3.9777   24.4029 C.ar    1  UNL1        0.0536
     31 C          -2.4335    3.5315   23.9295 C.ar    1  UNL1        0.0045
     32 C          -1.4146    3.0478   24.9182 C.ar    1  UNL1        0.0001
     33 C          -4.8040    4.4615   23.4141 C.2     1  UNL1        0.2491
     34 O          -5.7470    3.4878   22.7716 O.2     1  UNL1       -0.2699
     35 N          -4.8800    5.9190   23.0678 N.am    1  UNL1       -0.2726
     36 C          -5.8990    6.4027   22.0790 C.3     1  UNL1        0.1152
     37 C          -3.9372    6.8927   23.7101 C.3     1  UNL1        0.1152
     38 C           4.8075    0.8968   36.7183 C.3     1  UNL1        0.1183
     39 C           4.5438    2.1338   37.5247 C.ar    1  UNL1        0.0712
     40 N           5.4446    3.3252   37.3867 N.ar    1  UNL1       -0.2471
     41 C           5.1809    4.5623   38.1931 C.ar    1  UNL1        0.0985
     42 C           4.0164    4.6078   39.1375 C.ar    1  UNL1        0.0203
     43 C           3.1157    3.4164   39.2755 C.ar    1  UNL1       -0.0015
     44 C           3.3793    2.1794   38.4691 C.ar    1  UNL1       -0.0069
     45 C           2.4785    0.9879   38.6071 C.3     1  UNL1        0.0323
@<TRIPOS>BOND
     1    19    20    1
     2    20    13    1
     3    13    14   ar
     4    14    15   ar
     5    15     1    1
     6     1     2   am
     7     2     3    2
     8     2     4   am
     9     4    21    1
    10    21    22   ar
    11    22    23   ar
    12    23    24   ar
    13    24    27    1
    14    27    28   ar
    15    28    29   ar
    16    29    30   ar
    17    30    33    1
    18    33    34    2
    19    33    35   am
    20    35    36    1
    21    35    37    1
    22    30    31   ar
    23    31    32   ar
    24    24    25   ar
    25    25    26   ar
    26     4     5   am
    27     5     6    2
    28     5     7    1
    29     7     8    1
    30     8     9    1
    31     9    10    1
    32    10    38    1
    33    38    39    1
    34    39    40   ar
    35    40    41   ar
    36    41    42   ar
    37    42    43   ar
    38    43    44   ar
    39    44    45    1
    40    10    11    1
    41    11    12    1
    42    15    16   ar
    43    16    17   ar
    44    17    18   ar
    45    18    13   ar
    46     7     1    1
    47    44    39   ar
    48    26    21   ar
    49    12     7    1
    50    32    27   ar
@<TRIPOS>MOLECULE
*****
 45 50 0 0 0
SMALL
GASTEIGER

@<TRIPOS>ATOM
      1 N           6.0539   -2.3237   26.0425 N.am    1  UNL1       -0.2222
      2 C           6.1388   -2.0521   27.5153 C.2     1  UNL1        0.3219
      3 O           7.1959   -2.5660   28.4471 O.2     1  UNL1       -0.2512
      4 N           4.9808   -1.1764   27.8927 N.am    1  UNL1       -0.1907
      5 C           4.1803   -0.9068   26.6531 C.2     1  UNL1        0.2529
      6 O           2.9352   -0.0744   26.5713 O.2     1  UNL1       -0.2724
      7 C           4.8434   -1.6159   25.5096 C.3     1  UNL1        0.1391
      8 C           5.6135   -2.3747   24.4699 C.3     1  UNL1        0.0449
      9 C           5.1480   -2.3757   23.0439 C.3     1  UNL1        0.0746
     10 N           3.9125   -1.6179   22.6578 N.3     1  UNL1       -0.2676
     11 C           3.1424   -0.8590   23.6975 C.3     1  UNL1        0.0746
     12 C           3.6079   -0.8580   25.1234 C.3     1  UNL1        0.0449
     13 C           7.8476   -5.4851   24.4493 C.ar    1  UNL1        0.2293
     14 C           6.8902   -4.6519   25.2488 C.ar    1  UNL1        0.0924
     15 C           7.0113   -3.1568   25.2429 C.ar    1  UNL1        0.1453
     16 N           8.0898   -2.4949   24.4375 N.ar    1  UNL1       -0.2084
     17 C           9.0472   -3.3279   23.6380 C.ar    1  UNL1        0.2027
     18 N           8.9261   -4.8231   23.6439 N.ar    1  UNL1       -0.1892
     19 C           7.5946   -7.7168   25.7551 C.3     1  UNL1        0.2542
     20 O           7.7265   -6.9801   24.4551 O.3     1  UNL1       -0.4560
     21 C           4.6768   -0.6609   29.2680 C.ar    1  UNL1        0.0622
     22 C           3.3159   -0.8697   29.8634 C.ar    1  UNL1        0.0154
     23 C           3.0119   -0.3541   31.2388 C.ar    1  UNL1        0.0013
     24 C           4.0687    0.3702   32.0189 C.ar    1  UNL1        0.0001
     25 C           5.4297    0.5790   31.4235 C.ar    1  UNL1        0.0013
     26 C           5.7336    0.0634   30.0481 C.ar    1  UNL1        0.0154
     27 C           3.7647    0.8857   33.3943 C.ar    1  UNL1        0.0000
     28 C           2.7713    1.9946   33.5770 C.ar    1  UNL1        0.0001
     29 C           2.4672    2.5102   34.9525 C.ar    1  UNL1        0.0045
     30 C           3.1567    1.9167   36.1451 C.ar    1  UNL1        0.0536
     31 C           4.1501    0.8078   35.9624 C.ar    1  UNL1        0.0045
     32 C           4.4542    0.2923   34.5871 C.ar    1  UNL1        0.0001
     33 C           2.8527    2.4323   37.5206 C.2     1  UNL1        0.2491
     34 O           1.6453    1.9343   38.2583 O.2     1  UNL1       -0.2699
     35 N           3.7561    3.4459   38.1583 N.am    1  UNL1       -0.2726
     36 C           3.4520    3.9614   39.5337 C.3     1  UNL1        0.1152
     37 C           4.9635    3.9439   37.4207 C.3     1  UNL1        0.1152
     38 C           3.4470   -1.6189   21.2318 C.3     1  UNL1        0.1183
     39 C           4.4452   -1.7228   20.1171 C.ar    1  UNL1        0.0712
     40 N           5.3635   -0.5737   19.8232 N.ar    1  UNL1       -0.2471
     41 C           6.3618   -0.6776   18.7084 C.ar    1  UNL1        0.0985
     42 C           6.4418   -1.9305   17.8875 C.ar    1  UNL1        0.0203
     43 C           5.5235   -3.0795   18.1814 C.ar    1  UNL1       -0.0015
     44 C           4.5252   -2.9757   19.2961 C.ar    1  UNL1       -0.0069
     45 C           3.6069   -4.1247   19.5900 C.3     1  UNL1        0.0323
@<TRIPOS>BOND
     1    19    20    1
     2    20    13    1
     3    13    14   ar
     4    14    15   ar
     5    15     1    1
     6     1     2   am
     7     2     3    2
     8     2     4   am
     9     4    21    1
    10    21    22   ar
    11    22    23   ar
    12    23    24   ar
    13    24    27    1
    14    27    28   ar
    15    28    29   ar
    16    29    30   ar
    17    30    33    1
    18    33    34    2
    19    33    35   am
    20    35    36    1
    21    35    37    1
    22    30    31   ar
    23    31    32   ar
    24    24    25   ar
    25    25    26   ar
    26     4     5   am
    27     5     6    2
    28     5     7    1
    29     7     8    1
    30     8     9    1
    31     9    10    1
    32    10    38    1
    33    38    39    1
    34    39    40   ar
    35    40    41   ar
    36    41    42   ar
    37    42    43   ar
    38    43    44   ar
    39    44    45    1
    40    10    11    1
    41    11    12    1
    42    15    16   ar
    43    16    17   ar
    44    17    18   ar
    45    18    13   ar
    46     7     1    1
    47    44    39   ar
    48    26    21   ar
    49    12     7    1
    50    32    27   ar
@<TRIPOS>MOLECULE
*****
 45 50 0 0 0
SMALL
GASTEIGER

@<TRIPOS>ATOM
      1 N           3.4493   -0.1061   30.5790 N.am    1  UNL1       -0.2222
      2 C           2.1927    0.6702   30.3172 C.2     1  UNL1        0.3219
      3 O           1.3125    1.2996   31.3560 O.2     1  UNL1       -0.2512
      4 N           1.9708    0.7064   28.8341 N.am    1  UNL1       -0.1907
      5 C           3.0903   -0.0473   28.1794 C.2     1  UNL1        0.2529
      6 O           3.2653   -0.2614   26.7051 O.2     1  UNL1       -0.2724
      7 C           4.0041   -0.5495   29.2578 C.3     1  UNL1        0.1391
      8 C           4.8207   -0.9831   30.4389 C.3     1  UNL1        0.0449
      9 C           6.0698   -1.7874   30.2323 C.3     1  UNL1        0.0746
     10 N           6.5023   -2.1582   28.8447 N.3     1  UNL1       -0.2676
     11 C           5.6856   -1.7246   27.6636 C.3     1  UNL1        0.0746
     12 C           4.4365   -0.9203   27.8702 C.3     1  UNL1        0.0449
     13 C           5.5774    0.3184   33.9018 C.ar    1  UNL1        0.2293
     14 C           4.9804    0.6014   32.5552 C.ar    1  UNL1        0.0924
     15 C           4.0463   -0.3891   31.9257 C.ar    1  UNL1        0.1453
     16 N           3.7092   -1.6627   32.6429 N.ar    1  UNL1       -0.2084
     17 C           4.3061   -1.9458   33.9894 C.ar    1  UNL1        0.2027
     18 N           5.2403   -0.9552   34.6190 N.ar    1  UNL1       -0.1892
     19 C           6.6709    1.3465   36.0224 C.3     1  UNL1        0.2542
     20 O           6.5115    1.3088   34.5314 O.3     1  UNL1       -0.4560
     21 C           0.8299    1.3785   28.1295 C.ar    1  UNL1        0.0622
     22 C          -0.5809    0.9570   28.4154 C.ar    1  UNL1        0.0154
     23 C          -1.7219    1.6291   27.7108 C.ar    1  UNL1        0.0013
     24 C          -1.4520    2.7226   26.7202 C.ar    1  UNL1        0.0001
     25 C          -0.0411    3.1441   26.4341 C.ar    1  UNL1        0.0013
     26 C           1.0998    2.4720   27.1388 C.ar    1  UNL1        0.0154
     27 C          -2.5930    3.3947   26.0155 C.ar    1  UNL1        0.0000
     28 C          -3.7615    3.9099   26.8024 C.ar    1  UNL1        0.0001
     29 C          -4.9025    4.5820   26.0977 C.ar    1  UNL1        0.0045
     30 C          -4.8749    4.7388   24.6062 C.ar    1  UNL1        0.0536
     31 C          -3.7064    4.2235   23.8193 C.ar    1  UNL1        0.0045
     32 C          -2.5655    3.5515   24.5239 C.ar    1  UNL1        0.0001
     33 C          -6.0158    5.4108   23.9015 C.2     1  UNL1        0.2491
     34 O          -7.2403    4.6245   23.5377 O.2     1  UNL1       -0.2699
     35 N          -5.9323    6.8693   23.5607 N.am    1  UNL1       -0.2726
     36 C          -7.0733    7.5413   22.8560 C.3     1  UNL1        0.1152
     37 C          -4.7079    7.6556   23.9244 C.3     1  UNL1        0.1152
     38 C           7.7515   -2.9626   28.6382 C.3     1  UNL1        0.1183
     39 C           7.7503   -4.1172   27.6808 C.ar    1  UNL1        0.0712
     40 N           8.1490   -3.9058   26.2503 N.ar    1  UNL1       -0.2471
     41 C           8.1478   -5.0606   25.2928 C.ar    1  UNL1        0.0985
     42 C           7.7479   -6.4266   25.7659 C.ar    1  UNL1        0.0203
     43 C           7.3492   -6.6381   27.1964 C.ar    1  UNL1       -0.0015
     44 C           7.3504   -5.4834   28.1538 C.ar    1  UNL1       -0.0069
     45 C           6.9516   -5.6948   29.5843 C.3     1  UNL1        0.0323
@<TRIPOS>BOND
     1    19    20    1
     2    20    13    1
     3    13    14   ar
     4    14    15   ar
     5    15     1    1
     6     1     2   am
     7     2     3    2
     8     2     4   am
     9     4    21    1
    10    21    22   ar
    11    22    23   ar
    12    23    24   ar
    13    24    27    1
    14    27    28   ar
    15    28    29   ar
    16    29    30   ar
    17    30    33    1
    18    33    34    2
    19    33    35   am
    20    35    36    1
    21    35    37    1
    22    30    31   ar
    23    31    32   ar
    24    24    25   ar
    25    25    26   ar
    26     4     5   am
    27     5     6    2
    28     5     7    1
    29     7     8    1
    30     8     9    1
    31     9    10    1
    32    10    38    1
    33    38    39    1
    34    39    40   ar
    35    40    41   ar
    36    41    42   ar
    37    42    43   ar
    38    43    44   ar
    39    44    45    1
    40    10    11    1
    41    11    12    1
    42    15    16   ar
    43    16    17   ar
    44    17    18   ar
    45    18    13   ar
    46     7     1    1
    47    44    39   ar
    48    26    21   ar
    49    12     7    1
    50    32    27   ar
@<TRIPOS>MOLECULE
*****
 45 50 0 0 0
SMALL
GASTEIGER

@<TRIPOS>ATOM
      1 N           3.7119   -0.8135   22.9107 N.am    1  UNL1       -0.2222
      2 C           2.5042    0.0573   22.7274 C.2     1  UNL1        0.3219
      3 O           1.8833    0.4391   21.4165 O.2     1  UNL1       -0.2512
      4 N           2.0266    0.4792   24.0854 N.am    1  UNL1       -0.1907
      5 C           2.9390   -0.1308   25.1078 C.2     1  UNL1        0.2529
      6 O           2.8293    0.0299   26.5951 O.2     1  UNL1       -0.2724
      7 C           3.9806   -0.9297   24.3818 C.3     1  UNL1        0.1391
      8 C           4.9514   -1.6843   23.5228 C.3     1  UNL1        0.0449
      9 C           6.0660   -2.4627   24.1567 C.3     1  UNL1        0.0746
     10 N           6.2096   -2.4866   25.6496 N.3     1  UNL1       -0.2676
     11 C           5.2388   -1.7320   26.5086 C.3     1  UNL1        0.0746
     12 C           4.1242   -0.9536   25.8748 C.3     1  UNL1        0.0449
     13 C           5.0885   -3.5408   20.3776 C.ar    1  UNL1        0.2293
     14 C           4.2898   -2.8990   21.4732 C.ar    1  UNL1        0.0924
     15 C           4.5105   -1.4553   21.8151 C.ar    1  UNL1        0.1453
     16 N           5.5298   -0.6533   21.0615 N.ar    1  UNL1       -0.2084
     17 C           6.3284   -1.2950   19.9659 C.ar    1  UNL1        0.2027
     18 N           6.1077   -2.7389   19.6240 N.ar    1  UNL1       -0.1892
     19 C           4.5126   -5.3769   18.6322 C.3     1  UNL1        0.2542
     20 O           4.8679   -4.9845   20.0357 O.3     1  UNL1       -0.4560
     21 C           0.8443    1.3569   24.3707 C.ar    1  UNL1        0.0622
     22 C           0.1425    1.2634   25.6931 C.ar    1  UNL1        0.0154
     23 C          -1.0399    2.1412   25.9785 C.ar    1  UNL1        0.0013
     24 C          -1.5206    3.1125   24.9414 C.ar    1  UNL1        0.0001
     25 C          -0.8188    3.2061   23.6189 C.ar    1  UNL1        0.0013
     26 C           0.3636    2.3283   23.3337 C.ar    1  UNL1        0.0154
     27 C          -2.7030    3.9903   25.2267 C.ar    1  UNL1        0.0000
     28 C          -2.9719    5.1893   24.3665 C.ar    1  UNL1        0.0001
     29 C          -4.1543    6.0671   24.6519 C.ar    1  UNL1        0.0045
     30 C          -5.0678    5.7458   25.7975 C.ar    1  UNL1        0.0536
     31 C          -4.7988    4.5467   26.6577 C.ar    1  UNL1        0.0045
     32 C          -3.6165    3.6690   26.3724 C.ar    1  UNL1        0.0001
     33 C          -6.2502    6.6235   26.0828 C.2     1  UNL1        0.2491
     34 O          -6.1476    7.7082   27.1138 O.2     1  UNL1       -0.2699
     35 N          -7.5352    6.4166   25.3371 N.am    1  UNL1       -0.2726
     36 C          -8.7176    7.2944   25.6226 C.3     1  UNL1        0.1152
     37 C          -7.6379    5.3320   24.3062 C.3     1  UNL1        0.1152
     38 C           7.3242   -3.2651   26.2835 C.3     1  UNL1        0.1183
     39 C           7.5316   -4.7064   25.9236 C.ar    1  UNL1        0.0712
     40 N           8.2898   -5.0675   24.6807 N.ar    1  UNL1       -0.2471
     41 C           8.4971   -6.5089   24.3208 C.ar    1  UNL1        0.0985
     42 C           7.9463   -7.5891   25.2037 C.ar    1  UNL1        0.0203
     43 C           7.1881   -7.2280   26.4466 C.ar    1  UNL1       -0.0015
     44 C           6.9807   -5.7867   26.8065 C.ar    1  UNL1       -0.0069
     45 C           6.2225   -5.4256   28.0494 C.3     1  UNL1        0.0323
@<TRIPOS>BOND
     1    19    20    1
     2    20    13    1
     3    13    14   ar
     4    14    15   ar
     5    15     1    1
     6     1     2   am
     7     2     3    2
     8     2     4   am
     9     4    21    1
    10    21    22   ar
    11    22    23   ar
    12    23    24   ar
    13    24    27    1
    14    27    28   ar
    15    28    29   ar
    16    29    30   ar
    17    30    33    1
    18    33    34    2
    19    33    35   am
    20    35    36    1
    21    35    37    1
    22    30    31   ar
    23    31    32   ar
    24    24    25   ar
    25    25    26   ar
    26     4     5   am
    27     5     6    2
    28     5     7    1
    29     7     8    1
    30     8     9    1
    31     9    10    1
    32    10    38    1
    33    38    39    1
    34    39    40   ar
    35    40    41   ar
    36    41    42   ar
    37    42    43   ar
    38    43    44   ar
    39    44    45    1
    40    10    11    1
    41    11    12    1
    42    15    16   ar
    43    16    17   ar
    44    17    18   ar
    45    18    13   ar
    46     7     1    1
    47    44    39   ar
    48    26    21   ar
    49    12     7    1
    50    32    27   ar
@<TRIPOS>MOLECULE
*****
 45 50 0 0 0
SMALL
GASTEIGER

@<TRIPOS>ATOM
      1 N           5.6119   -0.5031   32.6113 N.am    1  UNL1       -0.2222
      2 C           6.0976   -0.0552   33.9580 C.2     1  UNL1        0.3219
      3 O           7.4092   -0.4193   34.5881 O.2     1  UNL1       -0.2512
      4 N           5.0413    0.8208   34.5639 N.am    1  UNL1       -0.1907
      5 C           3.9028    0.9142   33.5917 C.2     1  UNL1        0.2529
      6 O           2.6344    1.6896   33.7912 O.2     1  UNL1       -0.2724
      7 C           4.2554    0.0960   32.3849 C.3     1  UNL1        0.1391
      8 C           4.7432   -0.7557   31.2506 C.3     1  UNL1        0.0449
      9 C           3.8893   -0.9420   30.0316 C.3     1  UNL1        0.0746
     10 N           2.5477   -0.2766   29.9468 N.3     1  UNL1       -0.2676
     11 C           2.0599    0.5751   31.0811 C.3     1  UNL1        0.0746
     12 C           2.9138    0.7614   32.3001 C.3     1  UNL1        0.0449
     13 C           6.9888   -3.7749   30.8368 C.ar    1  UNL1        0.2293
     14 C           6.2482   -2.8843   31.7897 C.ar    1  UNL1        0.0924
     15 C           6.3525   -1.3937   31.6583 C.ar    1  UNL1        0.1453
     16 N           7.1976   -0.7938   30.5739 N.ar    1  UNL1       -0.2084
     17 C           7.9383   -1.6843   29.6209 C.ar    1  UNL1        0.2027
     18 N           7.8339   -3.1749   29.7523 N.ar    1  UNL1       -0.1892
     19 C           7.6517   -6.1559   30.0362 C.3     1  UNL1        0.2542
     20 O           6.8845   -5.2654   30.9681 O.3     1  UNL1       -0.4560
     21 C           5.1112    1.4863   35.9063 C.ar    1  UNL1        0.0622
     22 C           5.9843    2.6903   36.1019 C.ar    1  UNL1        0.0154
     23 C           6.0542    3.3559   37.4443 C.ar    1  UNL1        0.0013
     24 C           5.2511    2.8175   38.5911 C.ar    1  UNL1        0.0001
     25 C           4.3780    1.6135   38.3955 C.ar    1  UNL1        0.0013
     26 C           4.3081    0.9480   37.0531 C.ar    1  UNL1        0.0154
     27 C           5.3211    3.4832   39.9336 C.ar    1  UNL1        0.0000
     28 C           6.4800    3.2111   40.8461 C.ar    1  UNL1        0.0001
     29 C           6.5499    3.8767   42.1886 C.ar    1  UNL1        0.0045
     30 C           5.4609    4.8144   42.6183 C.ar    1  UNL1        0.0536
     31 C           4.3019    5.0865   41.7057 C.ar    1  UNL1        0.0045
     32 C           4.2320    4.4209   40.3634 C.ar    1  UNL1        0.0001
     33 C           5.5308    5.4800   43.9608 C.2     1  UNL1        0.2491
     34 O           5.0394    4.7600   45.1814 O.2     1  UNL1       -0.2699
     35 N           6.0923    6.8657   44.0825 N.am    1  UNL1       -0.2726
     36 C           6.1622    7.5312   45.4249 C.3     1  UNL1        0.1152
     37 C           6.5837    7.5857   42.8619 C.3     1  UNL1        0.1152
     38 C           1.6938   -0.4630   28.7277 C.3     1  UNL1        0.1183
     39 C           0.9251    0.6961   28.1661 C.ar    1  UNL1        0.0712
     40 N           1.6562    1.8783   27.6022 N.ar    1  UNL1       -0.2471
     41 C           0.8874    3.0375   27.0406 C.ar    1  UNL1        0.0985
     42 C          -0.6124    3.0145   27.0428 C.ar    1  UNL1        0.0203
     43 C          -1.3435    1.8323   27.6067 C.ar    1  UNL1       -0.0015
     44 C          -0.5748    0.6731   28.1683 C.ar    1  UNL1       -0.0069
     45 C          -1.3059   -0.5091   28.7321 C.3     1  UNL1        0.0323
@<TRIPOS>BOND
     1    19    20    1
     2    20    13    1
     3    13    14   ar
     4    14    15   ar
     5    15     1    1
     6     1     2   am
     7     2     3    2
     8     2     4   am
     9     4    21    1
    10    21    22   ar
    11    22    23   ar
    12    23    24   ar
    13    24    27    1
    14    27    28   ar
    15    28    29   ar
    16    29    30   ar
    17    30    33    1
    18    33    34    2
    19    33    35   am
    20    35    36    1
    21    35    37    1
    22    30    31   ar
    23    31    32   ar
    24    24    25   ar
    25    25    26   ar
    26     4     5   am
    27     5     6    2
    28     5     7    1
    29     7     8    1
    30     8     9    1
    31     9    10    1
    32    10    38    1
    33    38    39    1
    34    39    40   ar
    35    40    41   ar
    36    41    42   ar
    37    42    43   ar
    38    43    44   ar
    39    44    45    1
    40    10    11    1
    41    11    12    1
    42    15    16   ar
    43    16    17   ar
    44    17    18   ar
    45    18    13   ar
    46     7     1    1
    47    44    39   ar
    48    26    21   ar
    49    12     7    1
    50    32    27   ar
@<TRIPOS>MOLECULE
*****
 45 50 0 0 0
SMALL
GASTEIGER

@<TRIPOS>ATOM
      1 N           4.1234   -0.9488   23.6989 N.am    1  UNL1       -0.2222
      2 C           4.6757   -1.0992   25.0855 C.2     1  UNL1        0.3219
      3 O           5.9201   -1.8469   25.4626 O.2     1  UNL1       -0.2512
      4 N           3.7648   -0.3705   26.0287 N.am    1  UNL1       -0.1907
      5 C           2.6498    0.2302   25.2250 C.2     1  UNL1        0.2529
      6 O           1.5127    1.0451   25.7662 O.2     1  UNL1       -0.2724
      7 C           2.8714   -0.1272   23.7851 C.3     1  UNL1        0.1391
      8 C           3.2219   -0.5608   22.3926 C.3     1  UNL1        0.0449
      9 C           2.3454   -0.1660   21.2412 C.3     1  UNL1        0.0746
     10 N           1.1183    0.6625   21.4823 N.3     1  UNL1       -0.2676
     11 C           0.7679    1.0961   22.8748 C.3     1  UNL1        0.0746
     12 C           1.6444    0.7012   24.0262 C.3     1  UNL1        0.0449
     13 C           4.9700   -3.4875   20.7683 C.ar    1  UNL1        0.2293
     14 C           4.3747   -2.9165   22.0212 C.ar    1  UNL1        0.0924
     15 C           4.7188   -1.5197   22.4460 C.ar    1  UNL1        0.1453
     16 N           5.6582   -0.6939   21.6181 N.ar    1  UNL1       -0.2084
     17 C           6.2536   -1.2648   20.3653 C.ar    1  UNL1        0.2027
     18 N           5.9095   -2.6617   19.9404 N.ar    1  UNL1       -0.1892
     19 C           3.8991   -5.1177   19.0522 C.3     1  UNL1        0.2542
     20 O           4.6260   -4.8843   20.3434 O.3     1  UNL1       -0.4560
     21 C           3.9386   -0.2617   27.5145 C.ar    1  UNL1        0.0622
     22 C           5.1747    0.3720   28.0806 C.ar    1  UNL1        0.0154
     23 C           5.3484    0.4809   29.5666 C.ar    1  UNL1        0.0013
     24 C           4.2861   -0.0440   30.4864 C.ar    1  UNL1        0.0001
     25 C           3.0500   -0.6777   29.9202 C.ar    1  UNL1        0.0013
     26 C           2.8763   -0.7865   28.4343 C.ar    1  UNL1        0.0154
     27 C           4.4599    0.0649   31.9723 C.ar    1  UNL1        0.0000
     28 C           4.0425   -1.0689   32.8613 C.ar    1  UNL1        0.0001
     29 C           4.2162   -0.9601   34.3472 C.ar    1  UNL1        0.0045
     30 C           4.8075    0.2826   34.9441 C.ar    1  UNL1        0.0536
     31 C           5.2249    1.4164   34.0551 C.ar    1  UNL1        0.0045
     32 C           5.0511    1.3076   32.5693 C.ar    1  UNL1        0.0001
     33 C           4.9812    0.3915   36.4300 C.2     1  UNL1        0.2491
     34 O           6.0846   -0.3607   37.1132 O.2     1  UNL1       -0.2699
     35 N           4.0515    1.2526   37.2328 N.am    1  UNL1       -0.2726
     36 C           4.2254    1.3614   38.7187 C.3     1  UNL1        0.1152
     37 C           2.9482    2.0048   36.5497 C.3     1  UNL1        0.1152
     38 C           0.2418    1.0573   20.3308 C.3     1  UNL1        0.1183
     39 C          -0.3632    2.4291   20.2847 C.ar    1  UNL1        0.0712
     40 N          -1.7403    2.6602   20.8327 N.ar    1  UNL1       -0.2471
     41 C          -2.3453    4.0321   20.7866 C.ar    1  UNL1        0.0985
     42 C          -1.5733    5.1727   20.1925 C.ar    1  UNL1        0.0203
     43 C          -0.1962    4.9415   19.6446 C.ar    1  UNL1       -0.0015
     44 C           0.4088    3.5698   19.6907 C.ar    1  UNL1       -0.0069
     45 C           1.7859    3.3386   19.1427 C.3     1  UNL1        0.0323
@<TRIPOS>BOND
     1    19    20    1
     2    20    13    1
     3    13    14   ar
     4    14    15   ar
     5    15     1    1
     6     1     2   am
     7     2     3    2
     8     2     4   am
     9     4    21    1
    10    21    22   ar
    11    22    23   ar
    12    23    24   ar
    13    24    27    1
    14    27    28   ar
    15    28    29   ar
    16    29    30   ar
    17    30    33    1
    18    33    34    2
    19    33    35   am
    20    35    36    1
    21    35    37    1
    22    30    31   ar
    23    31    32   ar
    24    24    25   ar
    25    25    26   ar
    26     4     5   am
    27     5     6    2
    28     5     7    1
    29     7     8    1
    30     8     9    1
    31     9    10    1
    32    10    38    1
    33    38    39    1
    34    39    40   ar
    35    40    41   ar
    36    41    42   ar
    37    42    43   ar
    38    43    44   ar
    39    44    45    1
    40    10    11    1
    41    11    12    1
    42    15    16   ar
    43    16    17   ar
    44    17    18   ar
    45    18    13   ar
    46     7     1    1
    47    44    39   ar
    48    26    21   ar
    49    12     7    1
    50    32    27   ar
@<TRIPOS>MOLECULE
*****
 45 50 0 0 0
SMALL
GASTEIGER

@<TRIPOS>ATOM
      1 N           4.5059    1.5173   35.2625 N.am    1  UNL1       -0.2222
      2 C           5.0718    0.2340   34.7304 C.2     1  UNL1        0.3219
      3 O           5.6135   -0.8983   35.5517 O.2     1  UNL1       -0.2512
      4 N           5.0008    0.2818   33.2328 N.am    1  UNL1       -0.1907
      5 C           4.3912    1.5946   32.8393 C.2     1  UNL1        0.2529
      6 O           4.1327    2.0619   31.4376 O.2     1  UNL1       -0.2724
      7 C           4.0852    2.3582   34.0937 C.3     1  UNL1        0.1391
      8 C           3.8376    2.9992   35.4270 C.3     1  UNL1        0.0449
      9 C           3.2196    4.3640   35.4999 C.3     1  UNL1        0.0746
     10 N           2.8492    5.0878   34.2394 N.3     1  UNL1       -0.2676
     11 C           3.0968    4.4468   32.9061 C.3     1  UNL1        0.0746
     12 C           3.7148    3.0821   32.8332 C.3     1  UNL1        0.0449
     13 C           3.0572    1.8382   38.9432 C.ar    1  UNL1        0.2293
     14 C           3.1807    1.4619   37.4964 C.ar    1  UNL1        0.0924
     15 C           4.3823    1.8935   36.7092 C.ar    1  UNL1        0.1453
     16 N           5.4605    2.7014   37.3688 N.ar    1  UNL1       -0.2084
     17 C           5.3370    3.0777   38.8155 C.ar    1  UNL1        0.2027
     18 N           4.1353    2.6460   39.6028 N.ar    1  UNL1       -0.1892
     19 C           1.0655    0.2078   39.2962 C.3     1  UNL1        0.2542
     20 O           1.8555    1.4066   39.7305 O.3     1  UNL1       -0.4560
     21 C           5.4591   -0.7941   32.2936 C.ar    1  UNL1        0.0622
     22 C           5.7053   -2.1822   32.8062 C.ar    1  UNL1        0.0154
     23 C           6.1636   -3.2582   31.8669 C.ar    1  UNL1        0.0013
     24 C           6.3758   -2.9462   30.4152 C.ar    1  UNL1        0.0001
     25 C           6.1296   -1.5581   29.9026 C.ar    1  UNL1        0.0013
     26 C           5.6713   -0.4821   30.8419 C.ar    1  UNL1        0.0154
     27 C           6.8341   -4.0223   29.4760 C.ar    1  UNL1        0.0000
     28 C           8.1161   -4.7541   29.7422 C.ar    1  UNL1        0.0001
     29 C           8.5744   -5.8301   28.8029 C.ar    1  UNL1        0.0045
     30 C           7.7506   -6.1743   27.5975 C.ar    1  UNL1        0.0536
     31 C           6.4686   -5.4424   27.3313 C.ar    1  UNL1        0.0045
     32 C           6.0103   -4.3665   28.2705 C.ar    1  UNL1        0.0001
     33 C           8.2089   -7.2503   26.6583 C.2     1  UNL1        0.2491
     34 O           7.8046   -8.6752   26.8956 O.2     1  UNL1       -0.2699
     35 N           9.0717   -6.9014   25.4818 N.am    1  UNL1       -0.2726
     36 C           9.5299   -7.9776   24.5426 C.3     1  UNL1        0.1152
     37 C           9.4761   -5.4767   25.2445 C.3     1  UNL1        0.1152
     38 C           2.2311    6.4527   34.3123 C.3     1  UNL1        0.1183
     39 C           0.7644    6.5979   34.5908 C.ar    1  UNL1        0.0712
     40 N          -0.2367    6.2954   33.5156 N.ar    1  UNL1       -0.2471
     41 C          -1.7035    6.4407   33.7942 C.ar    1  UNL1        0.0985
     42 C          -2.1690    6.8884   35.1480 C.ar    1  UNL1        0.0203
     43 C          -1.1679    7.1909   36.2232 C.ar    1  UNL1       -0.0015
     44 C           0.2988    7.0456   35.9447 C.ar    1  UNL1       -0.0069
     45 C           1.3000    7.3481   37.0199 C.3     1  UNL1        0.0323
@<TRIPOS>BOND
     1    19    20    1
     2    20    13    1
     3    13    14   ar
     4    14    15   ar
     5    15     1    1
     6     1     2   am
     7     2     3    2
     8     2     4   am
     9     4    21    1
    10    21    22   ar
    11    22    23   ar
    12    23    24   ar
    13    24    27    1
    14    27    28   ar
    15    28    29   ar
    16    29    30   ar
    17    30    33    1
    18    33    34    2
    19    33    35   am
    20    35    36    1
    21    35    37    1
    22    30    31   ar
    23    31    32   ar
    24    24    25   ar
    25    25    26   ar
    26     4     5   am
    27     5     6    2
    28     5     7    1
    29     7     8    1
    30     8     9    1
    31     9    10    1
    32    10    38    1
    33    38    39    1
    34    39    40   ar
    35    40    41   ar
    36    41    42   ar
    37    42    43   ar
    38    43    44   ar
    39    44    45    1
    40    10    11    1
    41    11    12    1
    42    15    16   ar
    43    16    17   ar
    44    17    18   ar
    45    18    13   ar
    46     7     1    1
    47    44    39   ar
    48    26    21   ar
    49    12     7    1
    50    32    27   ar
