@<TRIPOS>MOLECULE
*****
 17 17 0 0 0
SMALL
GASTEIGER

@<TRIPOS>ATOM
      1 C          -8.8689  -16.6808   25.8953 C.ar    1  UNL1       -0.0224
      2 C          -8.9102  -15.6166   24.8392 C.ar    1  UNL1       -0.0027
      3 C          -9.6059  -15.8793   23.5365 C.ar    1  UNL1        0.0185
      4 C         -10.2602  -17.2063   23.2899 C.ar    1  UNL1        0.0791
      5 C         -10.2189  -18.2706   24.3461 C.ar    1  UNL1       -0.0045
      6 C         -10.8732  -19.5977   24.0996 C.3     1  UNL1        0.0326
      7 C          -9.5232  -18.0079   25.6488 C.ar    1  UNL1       -0.0070
      8 N         -10.9558  -17.4690   21.9872 N.2     1  UNL1       -0.2245
      9 C         -11.2681  -16.3313   21.0609 C.2     1  UNL1        0.1958
     10 N         -11.9637  -16.5940   19.7582 N.3     1  UNL1       -0.2481
     11 O         -12.5003  -15.4496   18.9504 O.3     1  UNL1       -0.2879
     12 H         -12.0681  -17.5175   19.4334 H       1  UNL1        0.1956
     13 H         -12.3151  -14.6152   19.4090 H       1  UNL1        0.2442
     14 C          -8.1733  -16.4181   27.1981 C.3     1  UNL1        0.0263
     15 C          -7.0226  -15.4574   27.2535 C.3     1  UNL1        0.0047
     16 C          -5.3274  -15.2196   25.2990 C.3     1  UNL1        0.0000
     17 C          -5.7124  -15.8191   26.6191 C.3     1  UNL1        0.0003
@<TRIPOS>BOND
     1    16    17    1
     2    17    15    1
     3    15    14    1
     4    14     1    1
     5     1     2   ar
     6     2     3   ar
     7     3     4   ar
     8     4     8    1
     9     8     9    2
    10     9    10    1
    11    10    11    1
    12     4     5   ar
    13     5     6    1
    14     5     7   ar
    15     7     1   ar
    16    10    12    1
    17    11    13    1
@<TRIPOS>MOLECULE
*****
 17 17 0 0 0
SMALL
GASTEIGER

@<TRIPOS>ATOM
      1 C          -6.0661  -19.8088   21.6125 C.ar    1  UNL1       -0.0224
      2 C          -5.4401  -20.5393   20.4616 C.ar    1  UNL1       -0.0027
      3 C          -3.9828  -20.3536   20.1588 C.ar    1  UNL1        0.0185
      4 C          -3.1514  -19.4374   21.0068 C.ar    1  UNL1        0.0791
      5 C          -3.7773  -18.7068   22.1577 C.ar    1  UNL1       -0.0045
      6 C          -2.9459  -17.7905   23.0058 C.3     1  UNL1        0.0326
      7 C          -5.2346  -18.8925   22.4605 C.ar    1  UNL1       -0.0070
      8 N          -1.6941  -19.2516   20.7040 N.2     1  UNL1       -0.2245
      9 C          -1.2540  -18.1564   19.7784 C.2     1  UNL1        0.1958
     10 N           0.2033  -17.9707   19.4756 N.3     1  UNL1       -0.2481
     11 O           1.1900  -17.8280   20.5964 O.3     1  UNL1       -0.2879
     12 H           0.5122  -17.9425   18.5412 H       1  UNL1        0.1956
     13 H           0.7240  -17.8777   21.4457 H       1  UNL1        0.2442
     14 C          -7.5234  -19.9945   21.9153 C.3     1  UNL1        0.0263
     15 C          -8.5424  -19.0989   21.2755 C.3     1  UNL1        0.0047
     16 C         -10.4679  -19.3518   19.5497 C.3     1  UNL1        0.0000
     17 C          -9.0034  -19.3685   19.8738 C.3     1  UNL1        0.0003
@<TRIPOS>BOND
     1    16    17    1
     2    17    15    1
     3    15    14    1
     4    14     1    1
     5     1     2   ar
     6     2     3   ar
     7     3     4   ar
     8     4     8    1
     9     8     9    2
    10     9    10    1
    11    10    11    1
    12     4     5   ar
    13     5     6    1
    14     5     7   ar
    15     7     1   ar
    16    10    12    1
    17    11    13    1
@<TRIPOS>MOLECULE
*****
 17 17 0 0 0
SMALL
GASTEIGER

@<TRIPOS>ATOM
      1 C         -10.3173  -19.1169   22.8275 C.ar    1  UNL1       -0.0224
      2 C          -9.0692  -18.4787   23.3613 C.ar    1  UNL1       -0.0027
      3 C          -7.8796  -18.2940   22.4664 C.ar    1  UNL1        0.0185
      4 C          -7.9382  -18.7473   21.0378 C.ar    1  UNL1        0.0791
      5 C          -9.1863  -19.3855   20.5040 C.ar    1  UNL1       -0.0045
      6 C          -9.2450  -19.8389   19.0754 C.3     1  UNL1        0.0326
      7 C         -10.3759  -19.5703   21.3989 C.ar    1  UNL1       -0.0070
      8 N          -6.7487  -18.5626   20.1429 N.2     1  UNL1       -0.2245
      9 C          -5.4123  -19.1092   20.5493 C.2     1  UNL1        0.1958
     10 N          -4.2227  -18.9244   19.6544 N.3     1  UNL1       -0.2481
     11 O          -4.0062  -17.6150   18.9554 O.3     1  UNL1       -0.2879
     12 H          -3.5841  -19.6626   19.5258 H       1  UNL1        0.1956
     13 H          -4.7208  -17.0019   19.1887 H       1  UNL1        0.2442
     14 C         -11.5068  -19.3017   23.7224 C.3     1  UNL1        0.0263
     15 C         -12.5412  -18.2205   23.8279 C.3     1  UNL1        0.0047
     16 C         -12.1602  -16.0013   22.5317 C.3     1  UNL1        0.0000
     17 C         -12.8281  -17.3394   22.6483 C.3     1  UNL1        0.0003
@<TRIPOS>BOND
     1    16    17    1
     2    17    15    1
     3    15    14    1
     4    14     1    1
     5     1     2   ar
     6     2     3   ar
     7     3     4   ar
     8     4     8    1
     9     8     9    2
    10     9    10    1
    11    10    11    1
    12     4     5   ar
    13     5     6    1
    14     5     7   ar
    15     7     1   ar
    16    10    12    1
    17    11    13    1
@<TRIPOS>MOLECULE
*****
 17 17 0 0 0
SMALL
GASTEIGER

@<TRIPOS>ATOM
      1 C          -6.5151  -19.7135   21.8786 C.ar    1  UNL1       -0.0224
      2 C          -6.1581  -20.3712   20.5786 C.ar    1  UNL1       -0.0027
      3 C          -4.8068  -20.1431   19.9688 C.ar    1  UNL1        0.0185
      4 C          -3.8124  -19.2572   20.6589 C.ar    1  UNL1        0.0791
      5 C          -4.1693  -18.5994   21.9588 C.ar    1  UNL1       -0.0045
      6 C          -3.1749  -17.7135   22.6490 C.3     1  UNL1        0.0326
      7 C          -5.5207  -18.8276   22.5687 C.ar    1  UNL1       -0.0070
      8 N          -2.4611  -19.0290   20.0490 N.2     1  UNL1       -0.2245
      9 C          -2.3090  -18.0824   18.8955 C.2     1  UNL1        0.1958
     10 N          -0.9577  -17.8543   18.2856 N.3     1  UNL1       -0.2481
     11 O          -0.8147  -17.7526   16.7959 O.3     1  UNL1       -0.2879
     12 H          -0.1647  -17.7712   18.8631 H       1  UNL1        0.1956
     13 H          -1.6848  -17.8556   16.3797 H       1  UNL1        0.2442
     14 C          -7.8664  -19.9416   22.4884 C.3     1  UNL1        0.0263
     15 C          -8.8054  -18.7884   22.6838 C.3     1  UNL1        0.0047
     16 C          -9.9147  -20.0290   24.6790 C.3     1  UNL1        0.0000
     17 C          -9.8430  -18.8411   23.7657 C.3     1  UNL1        0.0003
@<TRIPOS>BOND
     1    16    17    1
     2    17    15    1
     3    15    14    1
     4    14     1    1
     5     1     2   ar
     6     2     3   ar
     7     3     4   ar
     8     4     8    1
     9     8     9    2
    10     9    10    1
    11    10    11    1
    12     4     5   ar
    13     5     6    1
    14     5     7   ar
    15     7     1   ar
    16    10    12    1
    17    11    13    1
@<TRIPOS>MOLECULE
*****
 17 17 0 0 0
SMALL
GASTEIGER

@<TRIPOS>ATOM
      1 C          -8.7607  -19.0670   21.2059 C.ar    1  UNL1       -0.0224
      2 C         -10.0887  -19.6846   20.8816 C.ar    1  UNL1       -0.0027
      3 C         -11.2108  -19.6149   21.8746 C.ar    1  UNL1        0.0185
      4 C         -11.0050  -18.9277   23.1919 C.ar    1  UNL1        0.0791
      5 C          -9.6771  -18.3102   23.5162 C.ar    1  UNL1       -0.0045
      6 C          -9.4712  -17.6229   24.8336 C.3     1  UNL1        0.0326
      7 C          -8.5549  -18.3798   22.5232 C.ar    1  UNL1       -0.0070
      8 N         -12.1271  -18.8581   24.1849 N.2     1  UNL1       -0.2245
      9 C         -13.3821  -18.1093   23.8470 C.2     1  UNL1        0.1958
     10 N         -14.5042  -18.0397   24.8400 N.3     1  UNL1       -0.2481
     11 O         -14.3636  -18.7024   26.1783 O.3     1  UNL1       -0.2879
     12 H         -15.3330  -17.5590   24.6134 H       1  UNL1        0.1956
     13 H         -13.4939  -19.1276   26.2388 H       1  UNL1        0.2442
     14 C          -7.6386  -19.1367   20.2129 C.3     1  UNL1        0.0263
     15 C          -6.6328  -20.2464   20.2945 C.3     1  UNL1        0.0047
     16 C          -4.0511  -20.4215   20.0615 C.3     1  UNL1        0.0000
     17 C          -5.2587  -19.9752   20.8314 C.3     1  UNL1        0.0003
@<TRIPOS>BOND
     1    16    17    1
     2    17    15    1
     3    15    14    1
     4    14     1    1
     5     1     2   ar
     6     2     3   ar
     7     3     4   ar
     8     4     8    1
     9     8     9    2
    10     9    10    1
    11    10    11    1
    12     4     5   ar
    13     5     6    1
    14     5     7   ar
    15     7     1   ar
    16    10    12    1
    17    11    13    1
@<TRIPOS>MOLECULE
*****
 17 17 0 0 0
SMALL
GASTEIGER

@<TRIPOS>ATOM
      1 C         -10.2034  -18.5365   23.5421 C.ar    1  UNL1       -0.0224
      2 C          -9.6127  -19.6883   22.7842 C.ar    1  UNL1       -0.0027
      3 C          -8.2290  -19.5811   22.2152 C.ar    1  UNL1        0.0185
      4 C          -7.4359  -18.3220   22.4040 C.ar    1  UNL1        0.0791
      5 C          -8.0266  -17.1702   23.1619 C.ar    1  UNL1       -0.0045
      6 C          -7.2335  -15.9110   23.3508 C.3     1  UNL1        0.0326
      7 C          -9.4103  -17.2775   23.7309 C.ar    1  UNL1       -0.0070
      8 N          -6.0522  -18.2148   21.8350 N.2     1  UNL1       -0.2245
      9 C          -4.9199  -18.9663   22.4699 C.2     1  UNL1        0.1958
     10 N          -3.5361  -18.8590   21.9009 N.3     1  UNL1       -0.2481
     11 O          -2.7474  -20.1008   21.6077 O.3     1  UNL1       -0.2879
     12 H          -3.1456  -17.9736   21.7198 H       1  UNL1        0.1956
     13 H          -3.2740  -20.8811   21.8419 H       1  UNL1        0.2442
     14 C         -11.5871  -18.6438   24.1111 C.3     1  UNL1        0.0263
     15 C         -12.7394  -17.9881   23.4095 C.3     1  UNL1        0.0047
     16 C         -12.3718  -16.4542   21.3450 C.3     1  UNL1        0.0000
     17 C         -12.7024  -17.7988   21.9220 C.3     1  UNL1        0.0003
@<TRIPOS>BOND
     1    16    17    1
     2    17    15    1
     3    15    14    1
     4    14     1    1
     5     1     2   ar
     6     2     3   ar
     7     3     4   ar
     8     4     8    1
     9     8     9    2
    10     9    10    1
    11    10    11    1
    12     4     5   ar
    13     5     6    1
    14     5     7   ar
    15     7     1   ar
    16    10    12    1
    17    11    13    1
@<TRIPOS>MOLECULE
*****
 17 17 0 0 0
SMALL
GASTEIGER

@<TRIPOS>ATOM
      1 C         -10.3131  -17.8321   20.9450 C.ar    1  UNL1       -0.0224
      2 C          -9.1067  -17.6324   21.8136 C.ar    1  UNL1       -0.0027
      3 C          -7.8547  -18.4154   21.5499 C.ar    1  UNL1        0.0185
      4 C          -7.8092  -19.3981   20.4176 C.ar    1  UNL1        0.0791
      5 C          -9.0157  -19.5978   19.5489 C.ar    1  UNL1       -0.0045
      6 C          -8.9702  -20.5805   18.4165 C.3     1  UNL1        0.0326
      7 C         -10.2676  -18.8148   19.8127 C.ar    1  UNL1       -0.0070
      8 N          -6.5573  -20.1811   20.1538 N.2     1  UNL1       -0.2245
      9 C          -5.2192  -19.5098   20.2471 C.2     1  UNL1        0.1958
     10 N          -3.9672  -20.2927   19.9834 N.3     1  UNL1       -0.2481
     11 O          -2.8806  -20.3401   21.0164 O.3     1  UNL1       -0.2879
     12 H          -3.8587  -20.7756   19.1323 H       1  UNL1        0.1956
     13 H          -3.1453  -19.8158   21.7884 H       1  UNL1        0.2442
     14 C         -11.5651  -17.0491   21.2087 C.3     1  UNL1        0.0263
     15 C         -12.7970  -17.7482   21.7023 C.3     1  UNL1        0.0047
     16 C         -12.0231  -18.4195   24.0899 C.3     1  UNL1        0.0000
     17 C         -13.0645  -17.8464   23.1749 C.3     1  UNL1        0.0003
@<TRIPOS>BOND
     1    16    17    1
     2    17    15    1
     3    15    14    1
     4    14     1    1
     5     1     2   ar
     6     2     3   ar
     7     3     4   ar
     8     4     8    1
     9     8     9    2
    10     9    10    1
    11    10    11    1
    12     4     5   ar
    13     5     6    1
    14     5     7   ar
    15     7     1   ar
    16    10    12    1
    17    11    13    1
@<TRIPOS>MOLECULE
*****
 17 17 0 0 0
SMALL
GASTEIGER

@<TRIPOS>ATOM
      1 C          -9.9227  -19.1714   20.8802 C.ar    1  UNL1       -0.0224
      2 C          -9.3071  -19.7165   19.6257 C.ar    1  UNL1       -0.0027
      3 C          -7.8272  -19.6062   19.4071 C.ar    1  UNL1        0.0185
      4 C          -6.9629  -18.9508   20.4431 C.ar    1  UNL1        0.0791
      5 C          -7.5785  -18.4057   21.6976 C.ar    1  UNL1       -0.0045
      6 C          -6.7142  -17.7502   22.7337 C.3     1  UNL1        0.0326
      7 C          -9.0584  -18.5159   21.9161 C.ar    1  UNL1       -0.0070
      8 N          -5.4830  -18.8405   20.2246 N.2     1  UNL1       -0.2245
      9 C          -4.5812  -19.9749   20.6116 C.2     1  UNL1        0.1958
     10 N          -3.1013  -19.8646   20.3931 N.3     1  UNL1       -0.2481
     11 O          -2.1514  -20.2177   21.4992 O.3     1  UNL1       -0.2879
     12 H          -2.7533  -19.5605   19.5238 H       1  UNL1        0.1956
     13 H          -2.6542  -20.4958   22.2807 H       1  UNL1        0.2442
     14 C         -11.4026  -19.2816   21.0987 C.3     1  UNL1        0.0263
     15 C         -12.2471  -18.0432   21.1524 C.3     1  UNL1        0.0047
     16 C         -12.3113  -15.8896   22.6044 C.3     1  UNL1        0.0000
     17 C         -12.5088  -17.3703   22.4673 C.3     1  UNL1        0.0003
@<TRIPOS>BOND
     1    16    17    1
     2    17    15    1
     3    15    14    1
     4    14     1    1
     5     1     2   ar
     6     2     3   ar
     7     3     4   ar
     8     4     8    1
     9     8     9    2
    10     9    10    1
    11    10    11    1
    12     4     5   ar
    13     5     6    1
    14     5     7   ar
    15     7     1   ar
    16    10    12    1
    17    11    13    1
@<TRIPOS>MOLECULE
*****
 17 17 0 0 0
SMALL
GASTEIGER

@<TRIPOS>ATOM
      1 C          -6.3876  -19.2347   21.6631 C.ar    1  UNL1       -0.0224
      2 C          -7.1733  -18.1769   22.3797 C.ar    1  UNL1       -0.0027
      3 C          -8.5312  -17.7828   21.8790 C.ar    1  UNL1        0.0185
      4 C          -9.1034  -18.4466   20.6617 C.ar    1  UNL1        0.0791
      5 C          -8.3177  -19.5044   19.9450 C.ar    1  UNL1       -0.0045
      6 C          -8.8900  -20.1683   18.7277 C.3     1  UNL1        0.0326
      7 C          -6.9598  -19.8985   20.4457 C.ar    1  UNL1       -0.0070
      8 N         -10.4614  -18.0525   20.1610 N.2     1  UNL1       -0.2245
      9 C         -11.0379  -16.7174   20.5285 C.2     1  UNL1        0.1958
     10 N         -12.3959  -16.3234   20.0278 N.3     1  UNL1       -0.2481
     11 O         -12.5234  -15.3627   18.8828 O.3     1  UNL1       -0.2879
     12 H         -13.2035  -16.6952   20.4507 H       1  UNL1        0.1956
     13 H         -11.6397  -15.0950   18.5854 H       1  UNL1        0.2442
     14 C          -5.0296  -19.6288   22.1638 C.3     1  UNL1        0.0263
     15 C          -4.0939  -18.5839   22.6952 C.3     1  UNL1        0.0047
     16 C          -2.3782  -16.7115   22.1469 C.3     1  UNL1        0.0000
     17 C          -3.0101  -18.0315   21.8175 C.3     1  UNL1        0.0003
@<TRIPOS>BOND
     1    16    17    1
     2    17    15    1
     3    15    14    1
     4    14     1    1
     5     1     2   ar
     6     2     3   ar
     7     3     4   ar
     8     4     8    1
     9     8     9    2
    10     9    10    1
    11    10    11    1
    12     4     5   ar
    13     5     6    1
    14     5     7   ar
    15     7     1   ar
    16    10    12    1
    17    11    13    1
