@<TRIPOS>MOLECULE
*****
 39 42 0 0 0
SMALL
GASTEIGER

@<TRIPOS>ATOM
      1 C          -6.1062  -15.9133   23.9402 C.3     1  UNL1        0.1225
      2 O          -6.8116  -15.3081   25.1176 O.3     1  UNL1       -0.3559
      3 C          -8.2652  -15.5961   25.3503 C.3     1  UNL1        0.1441
      4 C          -9.0134  -16.4892   24.4056 C.3     1  UNL1        0.0589
      5 C          -8.3081  -17.0943   23.2282 C.3     1  UNL1        0.1466
      6 C          -9.0563  -17.9875   22.2835 C.ar    1  UNL1        0.0618
      7 C         -10.5099  -18.2754   22.5162 C.ar    1  UNL1        0.1407
      8 F         -11.5019  -17.8532   23.5591 F       1  UNL1       -0.2043
      9 C         -11.2582  -19.1685   21.5715 C.ar    1  UNL1        0.0319
     10 C         -10.5528  -19.7737   20.3941 C.ar    1  UNL1        0.0351
     11 C          -9.0992  -19.4858   20.1614 C.ar    1  UNL1        0.1737
     12 F          -8.3939  -20.0909   18.9840 F       1  UNL1       -0.2010
     13 C          -8.3510  -18.5926   21.1061 C.ar    1  UNL1        0.1655
     14 O          -6.8974  -18.3047   20.8734 O.3     1  UNL1       -0.4732
     15 C          -6.1491  -17.4116   21.8181 C.3     1  UNL1        0.2098
     16 C          -6.8545  -16.8064   22.9955 C.3     1  UNL1        0.0957
     17 S          -9.7617  -17.3823   23.4609 S.O2    1  UNL1        0.0094
     18 O         -10.2897  -16.8136   23.2787 O.2     1  UNL1       -0.1684
     19 O          -9.7715  -18.7765   24.0142 O.2     1  UNL1       -0.1684
     20 C         -11.2153  -17.6702   23.6936 C.ar    1  UNL1        0.1059
     21 C         -11.6240  -18.6814   24.7235 C.ar    1  UNL1        0.0192
     22 C         -13.0776  -18.9693   24.9562 C.ar    1  UNL1        0.0127
     23 C         -14.1225  -18.2461   24.1590 C.ar    1  UNL1        0.0578
     24 CL        -15.5761  -18.5341   24.3917 Cl      1  UNL1       -0.0822
     25 C         -13.7137  -17.2350   23.1292 C.ar    1  UNL1        0.0127
     26 C         -12.2601  -16.9470   22.8965 C.ar    1  UNL1        0.0192
     27 C          -4.6526  -15.6253   23.7075 C.3     1  UNL1        0.0550
     28 C          -3.6582  -16.7482   23.6953 C.3     1  UNL1        0.1533
     29 S          -2.6315  -16.8290   22.6047 S.O2    1  UNL1       -0.0099
     30 O          -3.1694  -15.5638   22.0046 O.2     1  UNL1       -0.1730
     31 O          -2.0936  -18.0941   23.2047 O.2     1  UNL1       -0.1730
     32 C          -1.6048  -16.9097   21.5141 C.3     1  UNL1        0.1522
     33 C          -1.4245  -18.1858   20.7468 C.3     1  UNL1        0.0397
     34 C          -2.5923  -18.8072   20.0395 C.3     1  UNL1        0.0437
     35 C          -2.6429  -17.6404   19.0982 C.3     1  UNL1        0.0158
     36 C          -2.5416  -19.9739   20.9809 C.3     1  UNL1        0.0158
     37 C          -4.4452  -20.6246   19.9237 C.3     1  UNL1        0.0858
     38 N          -3.7601  -19.4285   19.3323 N.3     1  UNL1       -0.2984
     39 H          -4.4682  -18.7005   19.2376 H       1  UNL1        0.1232
@<TRIPOS>BOND
     1    37    38    1
     2    38    34    1
     3    34    35    1
     4    34    36    1
     5    34    33    1
     6    33    32    1
     7    32    29    1
     8    29    30    2
     9    29    31    2
    10    29    28    1
    11    28    27    1
    12     1    27    1
    13     1     2    1
    14     2     3    1
    15     3     4    1
    16     4     5    1
    17     5    17    1
    18    17    18    2
    19    17    19    2
    20    17    20    1
    21    20    21   ar
    22    21    22   ar
    23    22    23   ar
    24    23    24    1
    25    23    25   ar
    26    25    26   ar
    27     5     6    1
    28     6     7   ar
    29     7     8    1
    30     7     9   ar
    31     9    10   ar
    32    10    11   ar
    33    11    12    1
    34    11    13   ar
    35    13    14    1
    36    14    15    1
    37    16    15    1
    38    16     1    1
    39    16     5    1
    40    26    20   ar
    41    13     6   ar
    42    38    39    1
@<TRIPOS>MOLECULE
*****
 39 42 0 0 0
SMALL
GASTEIGER

@<TRIPOS>ATOM
      1 C         -14.7420   -0.8349   18.4875 C.3     1  UNL1        0.1225
      2 O         -16.1940   -1.1559   18.2909 O.3     1  UNL1       -0.3559
      3 C         -16.6433   -2.5853   18.2207 C.3     1  UNL1        0.1441
      4 C         -15.6407   -3.6937   18.3472 C.3     1  UNL1        0.0589
      5 C         -14.1887   -3.3728   18.5438 C.3     1  UNL1        0.1466
      6 C         -13.1860   -4.4812   18.6702 C.ar    1  UNL1        0.0618
      7 C         -13.6353   -5.9106   18.6001 C.ar    1  UNL1        0.1407
      8 F         -14.9669   -6.5765   18.4172 F       1  UNL1       -0.2043
      9 C         -12.6327   -7.0191   18.7265 C.ar    1  UNL1        0.0319
     10 C         -11.1806   -6.6981   18.9231 C.ar    1  UNL1        0.0351
     11 C         -10.7313   -5.2687   18.9933 C.ar    1  UNL1        0.1737
     12 F          -9.2793   -4.9477   19.1899 F       1  UNL1       -0.2010
     13 C         -11.7340   -4.1603   18.8668 C.ar    1  UNL1        0.1655
     14 O         -11.2847   -2.7309   18.9370 O.3     1  UNL1       -0.4732
     15 C         -12.2873   -1.6224   18.8105 C.3     1  UNL1        0.2098
     16 C         -13.7394   -1.9434   18.6139 C.3     1  UNL1        0.0957
     17 S         -14.6380   -4.8022   18.4736 S.O2    1  UNL1        0.0094
     18 O         -14.8550   -5.0919   17.7634 O.2     1  UNL1       -0.1684
     19 O         -14.5300   -5.2865   19.8892 O.2     1  UNL1       -0.1684
     20 C         -15.0874   -6.2316   18.4035 C.ar    1  UNL1        0.1059
     21 C         -15.0185   -6.9764   17.1033 C.ar    1  UNL1        0.0192
     22 C         -15.4679   -8.4058   17.0331 C.ar    1  UNL1        0.0127
     23 C         -15.9860   -9.0904   18.2632 C.ar    1  UNL1        0.0578
     24 CL        -16.4354  -10.5198   18.1931 Cl      1  UNL1       -0.0822
     25 C         -16.0548   -8.3455   19.5633 C.ar    1  UNL1        0.0127
     26 C         -15.6055   -6.9161   19.6335 C.ar    1  UNL1        0.0192
     27 C         -14.2927    0.5945   18.5576 C.3     1  UNL1        0.0550
     28 C         -15.2926    1.7030   18.4120 C.3     1  UNL1        0.1533
     29 S         -15.5952    2.5980   19.5771 S.O2    1  UNL1       -0.0099
     30 O         -14.7261    3.6661   18.9823 O.2     1  UNL1       -0.1730
     31 O         -16.4643    1.5298   20.1719 O.2     1  UNL1       -0.1730
     32 C         -15.8978    3.4929   20.7422 C.3     1  UNL1        0.1522
     33 C         -16.8370    3.0328   21.8174 C.3     1  UNL1        0.0397
     34 C         -16.7494    3.6238   23.1932 C.3     1  UNL1        0.0437
     35 C         -17.8779    2.7440   23.6430 C.3     1  UNL1        0.0158
     36 C         -15.6209    4.5037   22.7434 C.3     1  UNL1        0.0158
     37 C         -17.7553    5.1101   25.0717 C.3     1  UNL1        0.0858
     38 N         -16.6618    4.2149   24.5691 N.3     1  UNL1       -0.2984
     39 H         -16.5976    3.4336   25.2216 H       1  UNL1        0.1232
@<TRIPOS>BOND
     1    37    38    1
     2    38    34    1
     3    34    35    1
     4    34    36    1
     5    34    33    1
     6    33    32    1
     7    32    29    1
     8    29    30    2
     9    29    31    2
    10    29    28    1
    11    28    27    1
    12     1    27    1
    13     1     2    1
    14     2     3    1
    15     3     4    1
    16     4     5    1
    17     5    17    1
    18    17    18    2
    19    17    19    2
    20    17    20    1
    21    20    21   ar
    22    21    22   ar
    23    22    23   ar
    24    23    24    1
    25    23    25   ar
    26    25    26   ar
    27     5     6    1
    28     6     7   ar
    29     7     8    1
    30     7     9   ar
    31     9    10   ar
    32    10    11   ar
    33    11    12    1
    34    11    13   ar
    35    13    14    1
    36    14    15    1
    37    16    15    1
    38    16     1    1
    39    16     5    1
    40    26    20   ar
    41    13     6   ar
    42    38    39    1
@<TRIPOS>MOLECULE
*****
 39 42 0 0 0
SMALL
GASTEIGER

@<TRIPOS>ATOM
      1 C           7.0364   -4.0666   21.1214 C.3     1  UNL1        0.1225
      2 O           6.0922   -4.3459   22.2529 O.3     1  UNL1       -0.3559
      3 C           4.8716   -3.4942   22.4389 C.3     1  UNL1        0.1441
      4 C           4.5951   -2.3632   21.4933 C.3     1  UNL1        0.0589
      5 C           5.5393   -2.0838   20.3617 C.3     1  UNL1        0.1466
      6 C           5.2628   -0.9527   19.4160 C.ar    1  UNL1        0.0618
      7 C           4.0422   -0.1010   19.6020 C.ar    1  UNL1        0.1407
      8 F           2.9169   -0.0951   20.5938 F       1  UNL1       -0.2043
      9 C           3.7657    1.0301   18.6564 C.ar    1  UNL1        0.0319
     10 C           4.7099    1.3094   17.5247 C.ar    1  UNL1        0.0351
     11 C           5.9305    0.4577   17.3388 C.ar    1  UNL1        0.1737
     12 F           6.8747    0.7371   16.2072 F       1  UNL1       -0.2010
     13 C           6.2070   -0.6734   18.2845 C.ar    1  UNL1        0.1655
     14 O           7.4276   -1.5251   18.0985 O.3     1  UNL1       -0.4732
     15 C           7.7041   -2.6562   19.0441 C.3     1  UNL1        0.2098
     16 C           6.7599   -2.9355   20.1758 C.3     1  UNL1        0.0957
     17 S           4.3186   -1.2321   20.5477 S.O2    1  UNL1        0.0094
     18 O           4.4028   -0.5344   20.9238 O.2     1  UNL1       -0.1684
     19 O           3.2192   -2.0294   19.9107 O.2     1  UNL1       -0.1684
     20 C           3.0980   -0.3804   20.7336 C.ar    1  UNL1        0.1059
     21 C           1.8146   -0.7497   20.0505 C.ar    1  UNL1        0.0192
     22 C           0.5939    0.1020   20.2364 C.ar    1  UNL1        0.0127
     23 C           0.6567    1.3231   21.1055 C.ar    1  UNL1        0.0578
     24 CL         -0.5640    2.1748   21.2914 Cl      1  UNL1       -0.0822
     25 C           1.9400    1.6923   21.7886 C.ar    1  UNL1        0.0127
     26 C           3.1606    0.8406   21.6026 C.ar    1  UNL1        0.0192
     27 C           8.2571   -4.9183   20.9355 C.3     1  UNL1        0.0550
     28 C           9.2616   -5.0412   22.0425 C.3     1  UNL1        0.1533
     29 S           8.9148   -5.7998   23.2892 S.O2    1  UNL1       -0.0099
     30 O           8.5508   -6.9957   22.4602 O.2     1  UNL1       -0.1730
     31 O           9.2789   -4.6039   24.1182 O.2     1  UNL1       -0.1730
     32 C           8.5680   -6.5584   24.5359 C.3     1  UNL1        0.1522
     33 C           7.5027   -6.0414   25.4565 C.3     1  UNL1        0.0397
     34 C           7.5269   -6.4061   26.9113 C.3     1  UNL1        0.0437
     35 C           7.4569   -7.8598   26.5481 C.3     1  UNL1        0.0158
     36 C           7.5969   -4.9524   27.2746 C.3     1  UNL1        0.0158
     37 C           7.0175   -5.8119   29.3887 C.3     1  UNL1        0.0858
     38 N           7.5511   -6.7708   28.3661 N.3     1  UNL1       -0.2984
     39 H           7.0145   -7.6328   28.4626 H       1  UNL1        0.1232
@<TRIPOS>BOND
     1    37    38    1
     2    38    34    1
     3    34    35    1
     4    34    36    1
     5    34    33    1
     6    33    32    1
     7    32    29    1
     8    29    30    2
     9    29    31    2
    10    29    28    1
    11    28    27    1
    12     1    27    1
    13     1     2    1
    14     2     3    1
    15     3     4    1
    16     4     5    1
    17     5    17    1
    18    17    18    2
    19    17    19    2
    20    17    20    1
    21    20    21   ar
    22    21    22   ar
    23    22    23   ar
    24    23    24    1
    25    23    25   ar
    26    25    26   ar
    27     5     6    1
    28     6     7   ar
    29     7     8    1
    30     7     9   ar
    31     9    10   ar
    32    10    11   ar
    33    11    12    1
    34    11    13   ar
    35    13    14    1
    36    14    15    1
    37    16    15    1
    38    16     1    1
    39    16     5    1
    40    26    20   ar
    41    13     6   ar
    42    38    39    1
@<TRIPOS>MOLECULE
*****
 39 42 0 0 0
SMALL
GASTEIGER

@<TRIPOS>ATOM
      1 C         -11.7960   -5.4621   18.8307 C.3     1  UNL1        0.1225
      2 O         -11.5323   -6.8472   18.3189 O.3     1  UNL1       -0.3559
      3 C         -12.6767   -7.7818   18.0603 C.3     1  UNL1        0.1441
      4 C         -14.0849   -7.3313   18.3136 C.3     1  UNL1        0.0589
      5 C         -14.3486   -5.9462   18.8254 C.3     1  UNL1        0.1466
      6 C         -15.7568   -5.4957   19.0786 C.ar    1  UNL1        0.0618
      7 C         -16.9012   -6.4303   18.8201 C.ar    1  UNL1        0.1407
      8 F         -17.0018   -7.8418   18.3227 F       1  UNL1       -0.2043
      9 C         -18.3093   -5.9798   19.0733 C.ar    1  UNL1        0.0319
     10 C         -18.5731   -4.5946   19.5852 C.ar    1  UNL1        0.0351
     11 C         -17.4287   -3.6601   19.8437 C.ar    1  UNL1        0.1737
     12 F         -17.6924   -2.2750   20.3555 F       1  UNL1       -0.2010
     13 C         -16.0205   -4.1106   19.5904 C.ar    1  UNL1        0.1655
     14 O         -14.8760   -3.1760   19.8490 O.3     1  UNL1       -0.4732
     15 C         -13.4679   -3.6265   19.5958 C.3     1  UNL1        0.2098
     16 C         -13.2041   -5.0117   19.0839 C.3     1  UNL1        0.0957
     17 S         -15.4930   -6.8808   18.5668 S.O2    1  UNL1        0.0094
     18 O         -15.9558   -6.7396   17.9333 O.2     1  UNL1       -0.1684
     19 O         -15.4035   -7.8813   19.6808 O.2     1  UNL1       -0.1684
     20 C         -16.6374   -7.8154   18.3082 C.ar    1  UNL1        0.1059
     21 C         -17.1933   -8.6476   19.4256 C.ar    1  UNL1        0.0192
     22 C         -18.3377   -9.5822   19.1671 C.ar    1  UNL1        0.0127
     23 C         -18.9263   -9.6846   17.7911 C.ar    1  UNL1        0.0578
     24 CL        -20.0707  -10.6191   17.5325 Cl      1  UNL1       -0.0822
     25 C         -18.3704   -8.8524   16.6738 C.ar    1  UNL1        0.0127
     26 C         -17.2260   -7.9178   16.9324 C.ar    1  UNL1        0.0192
     27 C         -10.6516   -4.5276   19.0893 C.3     1  UNL1        0.0550
     28 C          -9.9844   -3.8241   17.9447 C.3     1  UNL1        0.1533
     29 S         -10.7438   -2.8088   17.1432 S.O2    1  UNL1       -0.0099
     30 O         -10.7874   -3.7578   15.9824 O.2     1  UNL1       -0.1730
     31 O         -10.7001   -1.8598   18.3040 O.2     1  UNL1       -0.1730
     32 C         -11.5032   -1.7934   16.3417 C.3     1  UNL1        0.1522
     33 C         -12.3029   -0.7332   17.0389 C.3     1  UNL1        0.0397
     34 C         -13.7797   -0.9126   17.2313 C.3     1  UNL1        0.0437
     35 C         -13.7175   -0.0847   18.4806 C.3     1  UNL1        0.0158
     36 C         -13.8419   -1.7405   15.9820 C.3     1  UNL1        0.0158
     37 C         -16.0093   -0.1782   18.3447 C.3     1  UNL1        0.0858
     38 N         -15.2564   -1.0920   17.4237 N.3     1  UNL1       -0.2984
     39 H         -15.6864   -1.0019   16.5032 H       1  UNL1        0.1232
@<TRIPOS>BOND
     1    37    38    1
     2    38    34    1
     3    34    35    1
     4    34    36    1
     5    34    33    1
     6    33    32    1
     7    32    29    1
     8    29    30    2
     9    29    31    2
    10    29    28    1
    11    28    27    1
    12     1    27    1
    13     1     2    1
    14     2     3    1
    15     3     4    1
    16     4     5    1
    17     5    17    1
    18    17    18    2
    19    17    19    2
    20    17    20    1
    21    20    21   ar
    22    21    22   ar
    23    22    23   ar
    24    23    24    1
    25    23    25   ar
    26    25    26   ar
    27     5     6    1
    28     6     7   ar
    29     7     8    1
    30     7     9   ar
    31     9    10   ar
    32    10    11   ar
    33    11    12    1
    34    11    13   ar
    35    13    14    1
    36    14    15    1
    37    16    15    1
    38    16     1    1
    39    16     5    1
    40    26    20   ar
    41    13     6   ar
    42    38    39    1
@<TRIPOS>MOLECULE
*****
 39 42 0 0 0
SMALL
GASTEIGER

@<TRIPOS>ATOM
      1 C          -0.8853    3.1695   20.4448 C.3     1  UNL1        0.1225
      2 O          -1.8395    3.6672   19.4000 O.3     1  UNL1       -0.3559
      3 C          -3.1772    4.2123   19.8046 C.3     1  UNL1        0.1441
      4 C          -3.5606    4.2596   21.2539 C.3     1  UNL1        0.0589
      5 C          -2.6063    3.7619   22.2987 C.3     1  UNL1        0.1466
      6 C          -2.9897    3.8092   23.7482 C.ar    1  UNL1        0.0618
      7 C          -4.3273    4.3543   24.1528 C.ar    1  UNL1        0.1407
      8 F          -5.4936    4.9200   23.3979 F       1  UNL1       -0.2043
      9 C          -4.7107    4.4016   25.6021 C.ar    1  UNL1        0.0319
     10 C          -3.7565    3.9038   26.6470 C.ar    1  UNL1        0.0351
     11 C          -2.4189    3.3587   26.2425 C.ar    1  UNL1        0.1737
     12 F          -1.4647    2.8610   27.2873 F       1  UNL1       -0.2010
     13 C          -2.0355    3.3114   24.7930 C.ar    1  UNL1        0.1655
     14 O          -0.6979    2.7664   24.3884 O.3     1  UNL1       -0.4732
     15 C          -0.3145    2.7190   22.9391 C.3     1  UNL1        0.2098
     16 C          -1.2687    3.2168   21.8942 C.3     1  UNL1        0.0957
     17 S          -3.9440    4.3070   22.7033 S.O2    1  UNL1        0.0094
     18 O          -4.5475    3.7931   22.7879 O.2     1  UNL1       -0.1684
     19 O          -3.7098    5.7827   22.8349 O.2     1  UNL1       -0.1684
     20 C          -5.2816    4.8521   23.1079 C.ar    1  UNL1        0.1059
     21 C          -6.4788    3.9491   23.1468 C.ar    1  UNL1        0.0192
     22 C          -7.8164    4.4942   23.5514 C.ar    1  UNL1        0.0127
     23 C          -7.9568    5.9422   23.9170 C.ar    1  UNL1        0.0578
     24 CL         -9.2944    6.4873   24.3215 Cl      1  UNL1       -0.0822
     25 C          -6.7596    6.8451   23.8780 C.ar    1  UNL1        0.0127
     26 C          -5.4220    6.3000   23.4734 C.ar    1  UNL1        0.0192
     27 C           0.4523    2.6244   20.0402 C.3     1  UNL1        0.0550
     28 C           0.5351    1.4858   19.0673 C.3     1  UNL1        0.1533
     29 S           1.3736    0.2842   19.3886 S.O2    1  UNL1       -0.0099
     30 O           2.3711    0.7025   18.3493 O.2     1  UNL1       -0.1730
     31 O           0.3761   -0.1341   20.4278 O.2     1  UNL1       -0.1730
     32 C           2.2121   -0.9173   19.7098 C.3     1  UNL1        0.1522
     33 C           3.6552   -0.9554   19.3024 C.3     1  UNL1        0.0397
     34 C           4.2483   -2.2221   18.7603 C.3     1  UNL1        0.0437
     35 C           3.5551   -3.0064   19.8347 C.3     1  UNL1        0.0158
     36 C           4.9415   -1.4378   17.6860 C.3     1  UNL1        0.0158
     37 C           4.4860   -4.8081   18.8371 C.3     1  UNL1        0.0858
     38 N           4.8414   -3.4888   18.2183 N.3     1  UNL1       -0.2984
     39 H           4.5731   -3.5426   17.2357 H       1  UNL1        0.1232
@<TRIPOS>BOND
     1    37    38    1
     2    38    34    1
     3    34    35    1
     4    34    36    1
     5    34    33    1
     6    33    32    1
     7    32    29    1
     8    29    30    2
     9    29    31    2
    10    29    28    1
    11    28    27    1
    12     1    27    1
    13     1     2    1
    14     2     3    1
    15     3     4    1
    16     4     5    1
    17     5    17    1
    18    17    18    2
    19    17    19    2
    20    17    20    1
    21    20    21   ar
    22    21    22   ar
    23    22    23   ar
    24    23    24    1
    25    23    25   ar
    26    25    26   ar
    27     5     6    1
    28     6     7   ar
    29     7     8    1
    30     7     9   ar
    31     9    10   ar
    32    10    11   ar
    33    11    12    1
    34    11    13   ar
    35    13    14    1
    36    14    15    1
    37    16    15    1
    38    16     1    1
    39    16     5    1
    40    26    20   ar
    41    13     6   ar
    42    38    39    1
@<TRIPOS>MOLECULE
*****
 39 42 0 0 0
SMALL
GASTEIGER

@<TRIPOS>ATOM
      1 C           1.1891    2.1095   19.7490 C.3     1  UNL1        0.1225
      2 O           1.2557    1.7989   21.2149 O.3     1  UNL1       -0.3559
      3 C           0.1342    2.2128   22.1210 C.3     1  UNL1        0.1441
      4 C          -1.0539    2.9373   21.5610 C.3     1  UNL1        0.0589
      5 C          -1.1205    3.2479   20.0951 C.3     1  UNL1        0.1466
      6 C          -2.3086    3.9724   19.5351 C.ar    1  UNL1        0.0618
      7 C          -3.4301    4.3863   20.4411 C.ar    1  UNL1        0.1407
      8 F          -3.6881    4.2440   21.9119 F       1  UNL1       -0.2043
      9 C          -4.6182    5.1108   19.8812 C.ar    1  UNL1        0.0319
     10 C          -4.6848    5.4214   18.4151 C.ar    1  UNL1        0.0351
     11 C          -3.5632    5.0075   17.5091 C.ar    1  UNL1        0.1737
     12 F          -3.6298    5.3181   16.0432 F       1  UNL1       -0.2010
     13 C          -2.3751    4.2830   18.0691 C.ar    1  UNL1        0.1655
     14 O          -1.2536    3.8691   17.1631 O.3     1  UNL1       -0.4732
     15 C          -0.0655    3.1446   17.7230 C.3     1  UNL1        0.2098
     16 C           0.0011    2.8340   19.1891 C.3     1  UNL1        0.0957
     17 S          -2.2420    3.6618   21.0011 S.O2    1  UNL1        0.0094
     18 O          -2.1298    4.2970   21.4695 O.2     1  UNL1       -0.1684
     19 O          -3.3241    2.6620   20.7194 O.2     1  UNL1       -0.1684
     20 C          -3.3635    4.0757   21.9071 C.ar    1  UNL1        0.1059
     21 C          -4.4875    3.1241   22.1922 C.ar    1  UNL1        0.0192
     22 C          -5.6090    3.5380   23.0982 C.ar    1  UNL1        0.0127
     23 C          -5.6066    4.9035   23.7192 C.ar    1  UNL1        0.0578
     24 CL         -6.7281    5.3174   24.6252 Cl      1  UNL1       -0.0822
     25 C          -4.4826    5.8550   23.4340 C.ar    1  UNL1        0.0127
     26 C          -3.3611    5.4411   22.5280 C.ar    1  UNL1        0.0192
     27 C           2.3107    1.6956   18.8430 C.3     1  UNL1        0.0550
     28 C           2.3336    0.3133   18.2612 C.3     1  UNL1        0.1533
     29 S           3.5842   -0.5116   18.3368 S.O2    1  UNL1       -0.0099
     30 O           3.5046   -0.7676   16.8610 O.2     1  UNL1       -0.1730
     31 O           3.6638   -0.2556   19.8127 O.2     1  UNL1       -0.1730
     32 C           4.8347   -1.3365   18.4125 C.3     1  UNL1        0.1522
     33 C           4.7508   -2.8329   18.3543 C.3     1  UNL1        0.0397
     34 C           4.6680   -3.6294   19.6227 C.3     1  UNL1        0.0437
     35 C           5.9619   -3.0276   20.0850 C.3     1  UNL1        0.0158
     36 C           3.3741   -4.2312   19.1603 C.3     1  UNL1        0.0158
     37 C           4.6396   -3.7297   22.2186 C.3     1  UNL1        0.0858
     38 N           4.5852   -4.4258   20.8911 N.3     1  UNL1       -0.2984
     39 H           3.7021   -4.9354   20.8617 H       1  UNL1        0.1232
@<TRIPOS>BOND
     1    37    38    1
     2    38    34    1
     3    34    35    1
     4    34    36    1
     5    34    33    1
     6    33    32    1
     7    32    29    1
     8    29    30    2
     9    29    31    2
    10    29    28    1
    11    28    27    1
    12     1    27    1
    13     1     2    1
    14     2     3    1
    15     3     4    1
    16     4     5    1
    17     5    17    1
    18    17    18    2
    19    17    19    2
    20    17    20    1
    21    20    21   ar
    22    21    22   ar
    23    22    23   ar
    24    23    24    1
    25    23    25   ar
    26    25    26   ar
    27     5     6    1
    28     6     7   ar
    29     7     8    1
    30     7     9   ar
    31     9    10   ar
    32    10    11   ar
    33    11    12    1
    34    11    13   ar
    35    13    14    1
    36    14    15    1
    37    16    15    1
    38    16     1    1
    39    16     5    1
    40    26    20   ar
    41    13     6   ar
    42    38    39    1
@<TRIPOS>MOLECULE
*****
 39 42 0 0 0
SMALL
GASTEIGER

@<TRIPOS>ATOM
      1 C          -1.1640    3.5204   20.0146 C.3     1  UNL1        0.1225
      2 O          -0.8169    3.2623   18.5783 O.3     1  UNL1       -0.3559
      3 C           0.2539    2.2706   18.2321 C.3     1  UNL1        0.1441
      4 C           0.9776    1.5371   19.3221 C.3     1  UNL1        0.0589
      5 C           0.6305    1.7952   20.7583 C.3     1  UNL1        0.1466
      6 C           1.3542    1.0616   21.8484 C.ar    1  UNL1        0.0618
      7 C           2.4250    0.0699   21.5021 C.ar    1  UNL1        0.1407
      8 F           3.0125   -0.4215   20.2124 F       1  UNL1       -0.2043
      9 C           3.1487   -0.6636   22.5921 C.ar    1  UNL1        0.0319
     10 C           2.8016   -0.4055   24.0284 C.ar    1  UNL1        0.0351
     11 C           1.7307    0.5861   24.3747 C.ar    1  UNL1        0.1737
     12 F           1.3836    0.8442   25.8109 F       1  UNL1       -0.2010
     13 C           1.0070    1.3197   23.2846 C.ar    1  UNL1        0.1655
     14 O          -0.0638    2.3114   23.6308 O.3     1  UNL1       -0.4732
     15 C          -0.7875    3.0450   22.5409 C.3     1  UNL1        0.2098
     16 C          -0.4404    2.7869   21.1045 C.3     1  UNL1        0.0957
     17 S           1.7013    0.8035   20.4120 S.O2    1  UNL1        0.0094
     18 O           2.4520    1.0664   20.3593 O.2     1  UNL1       -0.1684
     19 O           0.9606   -0.4918   20.2586 O.2     1  UNL1       -0.1684
     20 C           2.7721   -0.1882   20.0658 C.ar    1  UNL1        0.1059
     21 C           2.4226   -1.6350   19.8794 C.ar    1  UNL1        0.0192
     22 C           3.4934   -2.6266   19.5331 C.ar    1  UNL1        0.0127
     23 C           4.9138   -2.1715   19.3733 C.ar    1  UNL1        0.0578
     24 CL          5.9847   -3.1632   19.0270 Cl      1  UNL1       -0.0822
     25 C           5.2633   -0.7248   19.5597 C.ar    1  UNL1        0.0127
     26 C           4.1925    0.2669   19.9060 C.ar    1  UNL1        0.0192
     27 C          -2.2349    4.5121   20.3608 C.3     1  UNL1        0.0550
     28 C          -3.6799    4.1276   20.2423 C.3     1  UNL1        0.1533
     29 S          -4.5099    3.9404   21.4776 S.O2    1  UNL1       -0.0099
     30 O          -4.4780    5.4198   21.7232 O.2     1  UNL1       -0.1730
     31 O          -4.5418    2.4610   21.2320 O.2     1  UNL1       -0.1730
     32 C          -5.3400    3.7532   22.7129 C.3     1  UNL1        0.1522
     33 C          -4.7139    3.2062   23.9614 C.3     1  UNL1        0.0397
     34 C          -4.5795    4.0760   25.1761 C.3     1  UNL1        0.0437
     35 C          -5.9838    4.5657   24.9809 C.3     1  UNL1        0.0158
     36 C          -3.1752    3.5863   25.3714 C.3     1  UNL1        0.0158
     37 C          -5.6545    5.6191   26.9686 C.3     1  UNL1        0.0858
     38 N          -4.4451    4.9457   26.3908 N.3     1  UNL1       -0.2984
     39 H          -4.0523    4.3617   27.1291 H       1  UNL1        0.1232
@<TRIPOS>BOND
     1    37    38    1
     2    38    34    1
     3    34    35    1
     4    34    36    1
     5    34    33    1
     6    33    32    1
     7    32    29    1
     8    29    30    2
     9    29    31    2
    10    29    28    1
    11    28    27    1
    12     1    27    1
    13     1     2    1
    14     2     3    1
    15     3     4    1
    16     4     5    1
    17     5    17    1
    18    17    18    2
    19    17    19    2
    20    17    20    1
    21    20    21   ar
    22    21    22   ar
    23    22    23   ar
    24    23    24    1
    25    23    25   ar
    26    25    26   ar
    27     5     6    1
    28     6     7   ar
    29     7     8    1
    30     7     9   ar
    31     9    10   ar
    32    10    11   ar
    33    11    12    1
    34    11    13   ar
    35    13    14    1
    36    14    15    1
    37    16    15    1
    38    16     1    1
    39    16     5    1
    40    26    20   ar
    41    13     6   ar
    42    38    39    1
@<TRIPOS>MOLECULE
*****
 39 42 0 0 0
SMALL
GASTEIGER

@<TRIPOS>ATOM
      1 C           5.6502   -0.8965   26.3032 C.3     1  UNL1        0.1225
      2 O           5.1759    0.4341   26.8077 O.3     1  UNL1       -0.3559
      3 C           5.0663    0.6812   28.2831 C.3     1  UNL1        0.1441
      4 C           5.4310   -0.4023   29.2541 C.3     1  UNL1        0.0589
      5 C           5.9054   -1.7329   28.7497 C.3     1  UNL1        0.1466
      6 C           6.2701   -2.8165   29.7207 C.ar    1  UNL1        0.0618
      7 C           6.1605   -2.5694   31.1962 C.ar    1  UNL1        0.1407
      8 F           5.7359   -1.3952   32.0273 F       1  UNL1       -0.2043
      9 C           6.5253   -3.6529   32.1672 C.ar    1  UNL1        0.0319
     10 C           6.9997   -4.9836   31.6628 C.ar    1  UNL1        0.0351
     11 C           7.1093   -5.2307   30.1874 C.ar    1  UNL1        0.1737
     12 F           7.5836   -6.5613   29.6829 F       1  UNL1       -0.2010
     13 C           6.7445   -4.1471   29.2163 C.ar    1  UNL1        0.1655
     14 O           6.8541   -4.3942   27.7409 O.3     1  UNL1       -0.4732
     15 C           6.4894   -3.3107   26.7699 C.3     1  UNL1        0.2098
     16 C           6.0150   -1.9800   27.2743 C.3     1  UNL1        0.0957
     17 S           5.7957   -1.4858   30.2251 S.O2    1  UNL1        0.0094
     18 O           5.1317   -1.7241   30.5962 O.2     1  UNL1       -0.1684
     19 O           7.0858   -0.8058   30.5762 O.2     1  UNL1       -0.1684
     20 C           5.6861   -1.2388   31.7006 C.ar    1  UNL1        0.1059
     21 C           4.3884   -1.4920   32.4091 C.ar    1  UNL1        0.0192
     22 C           4.2788   -1.2449   33.8845 C.ar    1  UNL1        0.0127
     23 C           5.4669   -0.7446   34.6515 C.ar    1  UNL1        0.0578
     24 CL          5.3573   -0.4975   36.1269 Cl      1  UNL1       -0.0822
     25 C           6.7645   -0.4914   33.9430 C.ar    1  UNL1        0.0127
     26 C           6.8741   -0.7385   32.4676 C.ar    1  UNL1        0.0192
     27 C           5.7598   -1.1436   24.8278 C.3     1  UNL1        0.0550
     28 C           4.5729   -1.6475   24.0615 C.3     1  UNL1        0.1533
     29 S           4.7466   -2.1642   22.6641 S.O2    1  UNL1       -0.0099
     30 O           4.9464   -0.7619   22.1705 O.2     1  UNL1       -0.1730
     31 O           4.5468   -3.5665   23.1577 O.2     1  UNL1       -0.1730
     32 C           4.9204   -2.6808   21.2666 C.3     1  UNL1        0.1522
     33 C           3.7901   -2.5839   20.2852 C.3     1  UNL1        0.0397
     34 C           4.0765   -2.3400   18.8332 C.3     1  UNL1        0.0437
     35 C           4.6377   -3.7256   18.7110 C.3     1  UNL1        0.0158
     36 C           3.5152   -0.9543   18.9553 C.3     1  UNL1        0.0158
     37 C           3.8302   -0.8659   16.7080 C.3     1  UNL1        0.0858
     38 N           4.3628   -2.0960   17.3811 N.3     1  UNL1       -0.2984
     39 H           5.3776   -2.0702   17.2814 H       1  UNL1        0.1232
@<TRIPOS>BOND
     1    37    38    1
     2    38    34    1
     3    34    35    1
     4    34    36    1
     5    34    33    1
     6    33    32    1
     7    32    29    1
     8    29    30    2
     9    29    31    2
    10    29    28    1
    11    28    27    1
    12     1    27    1
    13     1     2    1
    14     2     3    1
    15     3     4    1
    16     4     5    1
    17     5    17    1
    18    17    18    2
    19    17    19    2
    20    17    20    1
    21    20    21   ar
    22    21    22   ar
    23    22    23   ar
    24    23    24    1
    25    23    25   ar
    26    25    26   ar
    27     5     6    1
    28     6     7   ar
    29     7     8    1
    30     7     9   ar
    31     9    10   ar
    32    10    11   ar
    33    11    12    1
    34    11    13   ar
    35    13    14    1
    36    14    15    1
    37    16    15    1
    38    16     1    1
    39    16     5    1
    40    26    20   ar
    41    13     6   ar
    42    38    39    1
@<TRIPOS>MOLECULE
*****
 39 42 0 0 0
SMALL
GASTEIGER

@<TRIPOS>ATOM
      1 C           0.3720    1.7909   21.4692 C.3     1  UNL1        0.1225
      2 O           0.5937    1.6867   22.9490 O.3     1  UNL1       -0.3559
      3 C           1.7049    0.8319   23.4826 C.3     1  UNL1        0.1441
      4 C           2.5944    0.0814   22.5363 C.3     1  UNL1        0.0589
      5 C           2.3727    0.1856   21.0565 C.3     1  UNL1        0.1466
      6 C           3.2622   -0.5650   20.1102 C.ar    1  UNL1        0.0618
      7 C           4.3733   -1.4198   20.6437 C.ar    1  UNL1        0.1407
      8 F           4.8679   -1.7451   22.0220 F       1  UNL1       -0.2043
      9 C           5.2628   -2.1703   19.6975 C.ar    1  UNL1        0.0319
     10 C           5.0411   -2.0662   18.2176 C.ar    1  UNL1        0.0351
     11 C           3.9300   -1.2114   17.6840 C.ar    1  UNL1        0.1737
     12 F           3.7083   -1.1072   16.2042 F       1  UNL1       -0.2010
     13 C           3.0405   -0.4608   18.6303 C.ar    1  UNL1        0.1655
     14 O           1.9293    0.3939   18.0968 O.3     1  UNL1       -0.4732
     15 C           1.0398    1.1445   19.0430 C.3     1  UNL1        0.2098
     16 C           1.2615    1.0403   20.5229 C.3     1  UNL1        0.0957
     17 S           3.4838   -0.6692   21.5901 S.O2    1  UNL1        0.0094
     18 O           3.3356   -1.4429   21.7115 O.2     1  UNL1       -0.1684
     19 O           4.6327    0.2830   21.7435 O.2     1  UNL1       -0.1684
     20 C           4.5950   -1.5239   22.1237 C.ar    1  UNL1        0.1059
     21 C           5.9665   -0.9440   22.3050 C.ar    1  UNL1        0.0192
     22 C           7.0777   -1.7988   22.8385 C.ar    1  UNL1        0.0127
     23 C           6.8173   -3.2334   23.1908 C.ar    1  UNL1        0.0578
     24 CL          7.9285   -4.0882   23.7244 Cl      1  UNL1       -0.0822
     25 C           5.4459   -3.8133   23.0095 C.ar    1  UNL1        0.0127
     26 C           4.3347   -2.9585   22.4759 C.ar    1  UNL1        0.0192
     27 C          -0.7391    2.6456   20.9356 C.3     1  UNL1        0.0550
     28 C          -1.4550    3.5993   21.8456 C.3     1  UNL1        0.1533
     29 S          -2.9530    3.5823   21.9212 S.O2    1  UNL1       -0.0099
     30 O          -2.8969    4.3547   23.2058 O.2     1  UNL1       -0.1730
     31 O          -3.0091    2.8100   20.6365 O.2     1  UNL1       -0.1730
     32 C          -4.4510    3.5654   21.9968 C.3     1  UNL1        0.1522
     33 C          -5.1685    4.5432   22.8794 C.3     1  UNL1        0.0397
     34 C          -6.6406    4.3922   23.1245 C.3     1  UNL1        0.0437
     35 C          -6.3872    4.3189   24.6012 C.3     1  UNL1        0.0158
     36 C          -6.8940    4.4656   21.6479 C.3     1  UNL1        0.0158
     37 C          -8.8239    5.1996   24.2784 C.3     1  UNL1        0.0858
     38 N          -8.1127    4.2413   23.3697 N.3     1  UNL1       -0.2984
     39 H          -8.5705    4.3030   22.4603 H       1  UNL1        0.1232
@<TRIPOS>BOND
     1    37    38    1
     2    38    34    1
     3    34    35    1
     4    34    36    1
     5    34    33    1
     6    33    32    1
     7    32    29    1
     8    29    30    2
     9    29    31    2
    10    29    28    1
    11    28    27    1
    12     1    27    1
    13     1     2    1
    14     2     3    1
    15     3     4    1
    16     4     5    1
    17     5    17    1
    18    17    18    2
    19    17    19    2
    20    17    20    1
    21    20    21   ar
    22    21    22   ar
    23    22    23   ar
    24    23    24    1
    25    23    25   ar
    26    25    26   ar
    27     5     6    1
    28     6     7   ar
    29     7     8    1
    30     7     9   ar
    31     9    10   ar
    32    10    11   ar
    33    11    12    1
    34    11    13   ar
    35    13    14    1
    36    14    15    1
    37    16    15    1
    38    16     1    1
    39    16     5    1
    40    26    20   ar
    41    13     6   ar
    42    38    39    1
