@<TRIPOS>MOLECULE
*****
 25 27 0 0 0
SMALL
GASTEIGER

@<TRIPOS>ATOM
      1 N          -8.6361  -19.8056   22.9270 N.am    1  UNL1       -0.2969
      2 C          -8.1028  -19.6986   21.5290 C.2     1  UNL1        0.2461
      3 O          -8.9897  -20.0162   20.3617 O.2     1  UNL1       -0.2701
      4 H          -8.0541  -19.5971   23.6932 H       1  UNL1        0.1501
      5 C          -6.6828  -19.2741   21.2984 C.ar    1  UNL1        0.0534
      6 C          -5.8473  -18.7945   22.4482 C.ar    1  UNL1        0.0045
      7 C          -4.4272  -18.3699   22.2176 C.ar    1  UNL1        0.0001
      8 C          -3.8427  -18.4250   20.8372 C.ar    1  UNL1        0.0001
      9 C          -4.6782  -18.9046   19.6875 C.ar    1  UNL1        0.0001
     10 C          -6.0983  -19.3291   19.9181 C.ar    1  UNL1        0.0045
     11 C          -2.4226  -18.0004   20.6066 C.ar    1  UNL1        0.0031
     12 C          -1.4670  -18.9244   19.9116 C.ar    1  UNL1        0.0207
     13 C          -0.0470  -18.4998   19.6810 C.ar    1  UNL1        0.0989
     14 N           0.4175  -17.1512   20.1454 N.ar    1  UNL1       -0.2423
     15 C          -0.5381  -16.2273   20.8404 C.ar    1  UNL1        0.0989
     16 C          -1.9582  -16.6519   21.0710 C.ar    1  UNL1        0.0207
     17 C         -10.0561  -20.2301   23.1576 C.3     1  UNL1        0.1167
     18 C         -12.5116  -17.4478   21.7507 C.ar    1  UNL1        0.1385
     19 C         -13.3732  -17.1961   22.9525 C.ar    1  UNL1        0.0369
     20 C         -13.1290  -17.9557   24.2227 C.ar    1  UNL1        0.0028
     21 C         -12.0234  -18.9671   24.2911 C.ar    1  UNL1       -0.0024
     22 C         -11.1619  -19.2187   23.0893 C.ar    1  UNL1        0.0005
     23 C         -11.4060  -18.4591   21.8191 C.ar    1  UNL1        0.0343
     24 C         -11.6141  -16.0150   19.7780 C.3     1  UNL1        0.2525
     25 O         -12.7557  -16.6881   20.4806 O.3     1  UNL1       -0.4714
@<TRIPOS>BOND
     1    24    25    1
     2    25    18    1
     3    18    19   ar
     4    19    20   ar
     5    20    21   ar
     6    21    22   ar
     7    22    17    1
     8    17     1    1
     9     1     2   am
    10     2     3    2
    11     2     5    1
    12     5     6   ar
    13     6     7   ar
    14     7     8   ar
    15     8    11    1
    16    11    12   ar
    17    12    13   ar
    18    13    14   ar
    19    14    15   ar
    20    15    16   ar
    21     8     9   ar
    22     9    10   ar
    23    22    23   ar
    24    23    18   ar
    25    10     5   ar
    26    16    11   ar
    27     1     4    1
@<TRIPOS>MOLECULE
*****
 25 27 0 0 0
SMALL
GASTEIGER

@<TRIPOS>ATOM
      1 N          -8.6361  -19.7805   22.9291 N.am    1  UNL1       -0.2969
      2 C          -8.0932  -19.6985   21.5332 C.2     1  UNL1        0.2461
      3 O          -8.9697  -20.0444   20.3661 O.2     1  UNL1       -0.2701
      4 H          -8.0608  -19.5534   23.6951 H       1  UNL1        0.1501
      5 C          -6.6739  -19.2707   21.3043 C.ar    1  UNL1        0.0534
      6 C          -6.0900  -19.3167   19.9234 C.ar    1  UNL1        0.0045
      7 C          -4.6707  -18.8889   19.6945 C.ar    1  UNL1        0.0001
      8 C          -3.8351  -18.4150   20.8466 C.ar    1  UNL1        0.0001
      9 C          -4.4190  -18.3690   22.2276 C.ar    1  UNL1        0.0001
     10 C          -5.8384  -18.7968   22.4564 C.ar    1  UNL1        0.0045
     11 C          -2.4158  -17.9872   20.6178 C.ar    1  UNL1        0.0031
     12 C          -1.9517  -16.6427   21.0940 C.ar    1  UNL1        0.0207
     13 C          -0.5323  -16.2149   20.8652 C.ar    1  UNL1        0.0989
     14 N           0.4229  -17.1316   20.1601 N.ar    1  UNL1       -0.2423
     15 C          -0.0412  -18.4761   19.6838 C.ar    1  UNL1        0.0989
     16 C          -1.4606  -18.9039   19.9127 C.ar    1  UNL1        0.0207
     17 C         -10.0554  -20.2083   23.1580 C.3     1  UNL1        0.1167
     18 C         -12.4926  -17.4090   21.7529 C.ar    1  UNL1        0.1385
     19 C         -13.3800  -17.1834   22.9409 C.ar    1  UNL1        0.0369
     20 C         -13.1593  -17.9661   24.2013 C.ar    1  UNL1        0.0028
     21 C         -12.0511  -18.9744   24.2737 C.ar    1  UNL1       -0.0024
     22 C         -11.1637  -19.2000   23.0857 C.ar    1  UNL1        0.0005
     23 C         -11.3844  -18.4173   21.8252 C.ar    1  UNL1        0.0343
     24 C         -11.5408  -16.0732   19.7380 C.3     1  UNL1        0.2525
     25 O         -12.7133  -16.6263   20.4924 O.3     1  UNL1       -0.4714
@<TRIPOS>BOND
     1    24    25    1
     2    25    18    1
     3    18    19   ar
     4    19    20   ar
     5    20    21   ar
     6    21    22   ar
     7    22    17    1
     8    17     1    1
     9     1     2   am
    10     2     3    2
    11     2     5    1
    12     5     6   ar
    13     6     7   ar
    14     7     8   ar
    15     8    11    1
    16    11    12   ar
    17    12    13   ar
    18    13    14   ar
    19    14    15   ar
    20    15    16   ar
    21     8     9   ar
    22     9    10   ar
    23    22    23   ar
    24    23    18   ar
    25    10     5   ar
    26    16    11   ar
    27     1     4    1
@<TRIPOS>MOLECULE
*****
 25 27 0 0 0
SMALL
GASTEIGER

@<TRIPOS>ATOM
      1 N          -8.9557  -19.4211   20.4412 N.am    1  UNL1       -0.2969
      2 C          -7.9454  -19.5718   21.5398 C.2     1  UNL1        0.2461
      3 O          -8.3650  -20.1090   22.8760 O.2     1  UNL1       -0.2701
      4 H          -8.6803  -19.0686   19.5642 H       1  UNL1        0.1501
      5 C          -6.5157  -19.1855   21.3021 C.ar    1  UNL1        0.0534
      6 C          -5.9401  -19.2547   19.9186 C.ar    1  UNL1        0.0045
      7 C          -4.5104  -18.8683   19.6810 C.ar    1  UNL1        0.0001
      8 C          -3.6561  -18.4128   20.8268 C.ar    1  UNL1        0.0001
      9 C          -4.2317  -18.3436   22.2102 C.ar    1  UNL1        0.0001
     10 C          -5.6615  -18.7300   22.4479 C.ar    1  UNL1        0.0045
     11 C          -2.2264  -18.0264   20.5891 C.ar    1  UNL1        0.0031
     12 C          -1.7578  -16.6418   20.9255 C.ar    1  UNL1        0.0207
     13 C          -0.3280  -16.2555   20.6879 C.ar    1  UNL1        0.0989
     14 N           0.6332  -17.2537   20.1137 N.ar    1  UNL1       -0.2423
     15 C           0.1645  -18.6384   19.7772 C.ar    1  UNL1        0.0989
     16 C          -1.2653  -19.0247   20.0149 C.ar    1  UNL1        0.0207
     17 C         -10.3854  -19.8074   20.6789 C.3     1  UNL1        0.1167
     18 C         -12.5701  -18.2557   23.6063 C.ar    1  UNL1        0.1385
     19 C         -13.1208  -17.0342   22.9321 C.ar    1  UNL1        0.0369
     20 C         -12.7597  -16.7371   21.5068 C.ar    1  UNL1        0.0028
     21 C         -11.8480  -17.6615   20.7557 C.ar    1  UNL1       -0.0024
     22 C         -11.2972  -18.8830   21.4299 C.ar    1  UNL1        0.0005
     23 C         -11.6583  -19.1801   22.8552 C.ar    1  UNL1        0.0343
     24 C         -14.3604  -18.4633   25.4775 C.3     1  UNL1        0.2525
     25 O         -12.9311  -18.5528   25.0315 O.3     1  UNL1       -0.4714
@<TRIPOS>BOND
     1    24    25    1
     2    25    18    1
     3    18    19   ar
     4    19    20   ar
     5    20    21   ar
     6    21    22   ar
     7    22    17    1
     8    17     1    1
     9     1     2   am
    10     2     3    2
    11     2     5    1
    12     5     6   ar
    13     6     7   ar
    14     7     8   ar
    15     8    11    1
    16    11    12   ar
    17    12    13   ar
    18    13    14   ar
    19    14    15   ar
    20    15    16   ar
    21     8     9   ar
    22     9    10   ar
    23    22    23   ar
    24    23    18   ar
    25    10     5   ar
    26    16    11   ar
    27     1     4    1
@<TRIPOS>MOLECULE
*****
 25 27 0 0 0
SMALL
GASTEIGER

@<TRIPOS>ATOM
      1 N          -0.4847    3.0691   20.1864 N.am    1  UNL1       -0.2969
      2 C           0.1312    2.4164   18.9844 C.2     1  UNL1        0.2461
      3 O          -0.1758    2.9335   17.6103 O.2     1  UNL1       -0.2701
      4 H          -0.2832    2.7297   21.0883 H       1  UNL1        0.1501
      5 C           1.0542    1.2466   19.1567 C.ar    1  UNL1        0.0534
      6 C           2.3299    1.1757   18.3710 C.ar    1  UNL1        0.0045
      7 C           3.2529    0.0059   18.5432 C.ar    1  UNL1        0.0001
      8 C           2.9000   -1.0931   19.5012 C.ar    1  UNL1        0.0001
      9 C           1.6243   -1.0223   20.2869 C.ar    1  UNL1        0.0001
     10 C           0.7013    0.1476   20.1146 C.ar    1  UNL1        0.0045
     11 C           3.8230   -2.2629   19.6734 C.ar    1  UNL1        0.0031
     12 C           5.0947   -2.1065   20.4533 C.ar    1  UNL1        0.0207
     13 C           6.0176   -3.2763   20.6255 C.ar    1  UNL1        0.0989
     14 N           5.6688   -4.6026   20.0178 N.ar    1  UNL1       -0.2423
     15 C           4.3971   -4.7591   19.2379 C.ar    1  UNL1        0.0989
     16 C           3.4742   -3.5892   19.0657 C.ar    1  UNL1        0.0207
     17 C          -1.4076    4.2389   20.0142 C.3     1  UNL1        0.1167
     18 C          -5.1275    3.6626   21.2713 C.ar    1  UNL1        0.1385
     19 C          -5.8621    3.6023   19.9649 C.ar    1  UNL1        0.0369
     20 C          -5.1118    3.7542   18.6749 C.ar    1  UNL1        0.0028
     21 C          -3.6270    3.9664   18.6913 C.ar    1  UNL1       -0.0024
     22 C          -2.8925    4.0267   19.9977 C.ar    1  UNL1        0.0005
     23 C          -3.6427    3.8748   21.2877 C.ar    1  UNL1        0.0343
     24 C          -7.1221    4.3125   22.8041 C.3     1  UNL1        0.2525
     25 O          -5.8778    3.5108   22.5612 O.3     1  UNL1       -0.4714
@<TRIPOS>BOND
     1    24    25    1
     2    25    18    1
     3    18    19   ar
     4    19    20   ar
     5    20    21   ar
     6    21    22   ar
     7    22    17    1
     8    17     1    1
     9     1     2   am
    10     2     3    2
    11     2     5    1
    12     5     6   ar
    13     6     7   ar
    14     7     8   ar
    15     8    11    1
    16    11    12   ar
    17    12    13   ar
    18    13    14   ar
    19    14    15   ar
    20    15    16   ar
    21     8     9   ar
    22     9    10   ar
    23    22    23   ar
    24    23    18   ar
    25    10     5   ar
    26    16    11   ar
    27     1     4    1
@<TRIPOS>MOLECULE
*****
 25 27 0 0 0
SMALL
GASTEIGER

@<TRIPOS>ATOM
      1 N          -1.6042    2.4610   20.8530 N.am    1  UNL1       -0.2969
      2 C          -0.2038    2.5084   21.3886 C.2     1  UNL1        0.2461
      3 O           0.2816    3.7295   22.1120 O.2     1  UNL1       -0.2701
      4 H          -1.9227    1.6596   20.3782 H       1  UNL1        0.1501
      5 C           0.7112    1.3347   21.2007 C.ar    1  UNL1        0.0534
      6 C           0.5471    0.4391   20.0087 C.ar    1  UNL1        0.0045
      7 C           1.4621   -0.7346   19.8208 C.ar    1  UNL1        0.0001
      8 C           2.5411   -1.0127   20.8250 C.ar    1  UNL1        0.0001
      9 C           2.7052   -0.1170   22.0171 C.ar    1  UNL1        0.0001
     10 C           1.7902    1.0567   22.2049 C.ar    1  UNL1        0.0045
     11 C           3.4561   -2.1863   20.6372 C.ar    1  UNL1        0.0031
     12 C           3.5351   -2.8699   19.3043 C.ar    1  UNL1        0.0207
     13 C           4.4500   -4.0436   19.1165 C.ar    1  UNL1        0.0989
     14 N           5.2860   -4.5337   20.2615 N.ar    1  UNL1       -0.2423
     15 C           5.2070   -3.8501   21.5943 C.ar    1  UNL1        0.0989
     16 C           4.2920   -2.6764   21.7822 C.ar    1  UNL1        0.0207
     17 C          -2.5191    3.6347   21.0409 C.3     1  UNL1        0.1167
     18 C          -5.8793    3.8354   23.1430 C.ar    1  UNL1        0.1385
     19 C          -5.3444    3.7475   24.5416 C.ar    1  UNL1        0.0369
     20 C          -3.8677    3.6219   24.7733 C.ar    1  UNL1        0.0028
     21 C          -2.9260    3.5843   23.6064 C.ar    1  UNL1       -0.0024
     22 C          -3.4609    3.6723   22.2079 C.ar    1  UNL1        0.0005
     23 C          -4.9375    3.7978   21.9762 C.ar    1  UNL1        0.0343
     24 C          -8.1980    4.7645   23.8575 C.3     1  UNL1        0.2525
     25 O          -7.3560    3.9610   22.9113 O.3     1  UNL1       -0.4714
@<TRIPOS>BOND
     1    24    25    1
     2    25    18    1
     3    18    19   ar
     4    19    20   ar
     5    20    21   ar
     6    21    22   ar
     7    22    17    1
     8    17     1    1
     9     1     2   am
    10     2     3    2
    11     2     5    1
    12     5     6   ar
    13     6     7   ar
    14     7     8   ar
    15     8    11    1
    16    11    12   ar
    17    12    13   ar
    18    13    14   ar
    19    14    15   ar
    20    15    16   ar
    21     8     9   ar
    22     9    10   ar
    23    22    23   ar
    24    23    18   ar
    25    10     5   ar
    26    16    11   ar
    27     1     4    1
@<TRIPOS>MOLECULE
*****
 25 27 0 0 0
SMALL
GASTEIGER

@<TRIPOS>ATOM
      1 N          -4.5840  -19.8336   21.9209 N.am    1  UNL1       -0.2969
      2 C          -5.2109  -18.5632   22.4140 C.2     1  UNL1        0.2461
      3 O          -4.3526  -17.3692   22.7105 O.2     1  UNL1       -0.2701
      4 H          -5.1472  -20.6172   21.7263 H       1  UNL1        0.1501
      5 C          -6.6959  -18.4868   22.6108 C.ar    1  UNL1        0.0534
      6 C          -7.5506  -19.6905   22.3450 C.ar    1  UNL1        0.0045
      7 C          -9.0356  -19.6141   22.5417 C.ar    1  UNL1        0.0001
      8 C          -9.6661  -18.3340   23.0043 C.ar    1  UNL1        0.0001
      9 C          -8.8114  -17.1303   23.2702 C.ar    1  UNL1        0.0001
     10 C          -7.3263  -17.2068   23.0734 C.ar    1  UNL1        0.0045
     11 C         -11.1511  -18.2577   23.2011 C.ar    1  UNL1        0.0031
     12 C         -11.7493  -18.5945   24.5348 C.ar    1  UNL1        0.0207
     13 C         -13.2343  -18.5181   24.7315 C.ar    1  UNL1        0.0989
     14 N         -14.1213  -18.1049   23.5946 N.ar    1  UNL1       -0.2423
     15 C         -13.5231  -17.7681   22.2609 C.ar    1  UNL1        0.0989
     16 C         -12.0380  -17.8445   22.0641 C.ar    1  UNL1        0.0207
     17 C          -3.0989  -19.9100   21.7241 C.3     1  UNL1        0.1167
     18 C          -0.4627  -17.6659   19.7838 C.ar    1  UNL1        0.1385
     19 C          -1.1371  -17.5243   18.4515 C.ar    1  UNL1        0.0369
     20 C          -2.4654  -18.1779   18.2100 C.ar    1  UNL1        0.0028
     21 C          -3.1194  -18.9732   19.3009 C.ar    1  UNL1       -0.0024
     22 C          -2.4450  -19.1147   20.6332 C.ar    1  UNL1        0.0005
     23 C          -1.1167  -18.4611   20.8747 C.ar    1  UNL1        0.0343
     24 C           1.9042  -17.7080   20.8542 C.3     1  UNL1        0.2525
     25 O           0.8656  -17.0122   20.0253 O.3     1  UNL1       -0.4714
@<TRIPOS>BOND
     1    24    25    1
     2    25    18    1
     3    18    19   ar
     4    19    20   ar
     5    20    21   ar
     6    21    22   ar
     7    22    17    1
     8    17     1    1
     9     1     2   am
    10     2     3    2
    11     2     5    1
    12     5     6   ar
    13     6     7   ar
    14     7     8   ar
    15     8    11    1
    16    11    12   ar
    17    12    13   ar
    18    13    14   ar
    19    14    15   ar
    20    15    16   ar
    21     8     9   ar
    22     9    10   ar
    23    22    23   ar
    24    23    18   ar
    25    10     5   ar
    26    16    11   ar
    27     1     4    1
@<TRIPOS>MOLECULE
*****
 25 27 0 0 0
SMALL
GASTEIGER

@<TRIPOS>ATOM
      1 N          -1.7128    2.7160   20.6976 N.am    1  UNL1       -0.2969
      2 C          -0.4631    2.6901   19.8683 C.2     1  UNL1        0.2461
      3 O          -0.1450    3.8370   18.9554 O.2     1  UNL1       -0.2701
      4 H          -1.9216    1.9632   21.2968 H       1  UNL1        0.1501
      5 C           0.4683    1.5174   19.9519 C.ar    1  UNL1        0.0534
      6 C           1.2168    1.0657   18.7329 C.ar    1  UNL1        0.0045
      7 C           2.1482   -0.1071   18.8165 C.ar    1  UNL1        0.0001
      8 C           2.3312   -0.8282   20.1191 C.ar    1  UNL1        0.0001
      9 C           1.5828   -0.3765   21.3380 C.ar    1  UNL1        0.0001
     10 C           0.6513    0.7963   21.2544 C.ar    1  UNL1        0.0045
     11 C           3.2627   -2.0009   20.2027 C.ar    1  UNL1        0.0031
     12 C           3.5367   -2.8296   18.9827 C.ar    1  UNL1        0.0207
     13 C           4.4681   -4.0023   19.0663 C.ar    1  UNL1        0.0989
     14 N           5.1256   -4.3465   20.3699 N.ar    1  UNL1       -0.2423
     15 C           4.8517   -3.5178   21.5898 C.ar    1  UNL1        0.0989
     16 C           3.9202   -2.3450   21.5062 C.ar    1  UNL1        0.0207
     17 C          -2.6443    3.8887   20.6140 C.3     1  UNL1        0.1167
     18 C          -5.0884    3.5980   23.7272 C.ar    1  UNL1        0.1385
     19 C          -6.3986    3.9613   23.0938 C.ar    1  UNL1        0.0369
     20 C          -6.4574    4.3005   21.6339 C.ar    1  UNL1        0.0028
     21 C          -5.2060    4.2763   20.8073 C.ar    1  UNL1       -0.0024
     22 C          -3.8958    3.9129   21.4406 C.ar    1  UNL1        0.0005
     23 C          -3.8370    3.5738   22.9006 C.ar    1  UNL1        0.0343
     24 C          -4.0507    3.9605   26.0813 C.3     1  UNL1        0.2525
     25 O          -5.0296    3.2588   25.1872 O.3     1  UNL1       -0.4714
@<TRIPOS>BOND
     1    24    25    1
     2    25    18    1
     3    18    19   ar
     4    19    20   ar
     5    20    21   ar
     6    21    22   ar
     7    22    17    1
     8    17     1    1
     9     1     2   am
    10     2     3    2
    11     2     5    1
    12     5     6   ar
    13     6     7   ar
    14     7     8   ar
    15     8    11    1
    16    11    12   ar
    17    12    13   ar
    18    13    14   ar
    19    14    15   ar
    20    15    16   ar
    21     8     9   ar
    22     9    10   ar
    23    22    23   ar
    24    23    18   ar
    25    10     5   ar
    26    16    11   ar
    27     1     4    1
@<TRIPOS>MOLECULE
*****
 25 27 0 0 0
SMALL
GASTEIGER

@<TRIPOS>ATOM
      1 N           6.0913   -4.1913   25.2923 N.am    1  UNL1       -0.2969
      2 C           6.2031   -4.2650   23.7982 C.2     1  UNL1        0.2461
      3 O           7.2087   -5.1807   23.1657 O.2     1  UNL1       -0.2701
      4 H           5.4312   -3.5902   25.7075 H       1  UNL1        0.1501
      5 C           5.3093   -3.4229   22.9368 C.ar    1  UNL1        0.0534
      6 C           5.1955   -3.7095   21.4688 C.ar    1  UNL1        0.0045
      7 C           4.3017   -2.8675   20.6074 C.ar    1  UNL1        0.0001
      8 C           3.5217   -1.7388   21.2139 C.ar    1  UNL1        0.0001
      9 C           3.6355   -1.4523   22.6819 C.ar    1  UNL1        0.0001
     10 C           4.5293   -2.2944   23.5434 C.ar    1  UNL1        0.0045
     11 C           2.6279   -0.8968   20.3525 C.ar    1  UNL1        0.0031
     12 C           3.0758   -0.4892   18.9802 C.ar    1  UNL1        0.0207
     13 C           2.1820    0.3528   18.1188 C.ar    1  UNL1        0.0989
     14 N           0.8402    0.7873   18.6297 N.ar    1  UNL1       -0.2423
     15 C           0.3923    0.3797   20.0020 C.ar    1  UNL1        0.0989
     16 C           1.2862   -0.4624   20.8634 C.ar    1  UNL1        0.0207
     17 C           6.9851   -5.0333   26.1537 C.3     1  UNL1        0.1167
     18 C           6.4601   -3.4389   29.7499 C.ar    1  UNL1        0.1385
     19 C           6.8725   -4.5818   30.6296 C.ar    1  UNL1        0.0369
     20 C           7.3224   -5.8751   30.0173 C.ar    1  UNL1        0.0028
     21 C           7.3599   -6.0256   28.5254 C.ar    1  UNL1       -0.0024
     22 C           6.9476   -4.8828   27.6457 C.ar    1  UNL1        0.0005
     23 C           6.4977   -3.5895   28.2580 C.ar    1  UNL1        0.0343
     24 C           5.8331   -2.0407   31.8480 C.3     1  UNL1        0.2525
     25 O           6.0102   -2.1456   30.3622 O.3     1  UNL1       -0.4714
@<TRIPOS>BOND
     1    24    25    1
     2    25    18    1
     3    18    19   ar
     4    19    20   ar
     5    20    21   ar
     6    21    22   ar
     7    22    17    1
     8    17     1    1
     9     1     2   am
    10     2     3    2
    11     2     5    1
    12     5     6   ar
    13     6     7   ar
    14     7     8   ar
    15     8    11    1
    16    11    12   ar
    17    12    13   ar
    18    13    14   ar
    19    14    15   ar
    20    15    16   ar
    21     8     9   ar
    22     9    10   ar
    23    22    23   ar
    24    23    18   ar
    25    10     5   ar
    26    16    11   ar
    27     1     4    1
@<TRIPOS>MOLECULE
*****
 25 27 0 0 0
SMALL
GASTEIGER

@<TRIPOS>ATOM
      1 N           0.0607    3.1997   24.1902 N.am    1  UNL1       -0.2969
      2 C           0.3283    1.7258   24.2700 C.2     1  UNL1        0.2461
      3 O          -0.1553    0.9387   25.4518 O.2     1  UNL1       -0.2701
      4 H           0.3781    3.7163   23.4146 H       1  UNL1        0.1501
      5 C           1.0794    1.0392   23.1681 C.ar    1  UNL1        0.0534
      6 C           0.5941    1.1416   21.7525 C.ar    1  UNL1        0.0045
      7 C           1.3452    0.4549   20.6506 C.ar    1  UNL1        0.0001
      8 C           2.5818   -0.3342   20.9643 C.ar    1  UNL1        0.0001
      9 C           3.0671   -0.4366   22.3799 C.ar    1  UNL1        0.0001
     10 C           2.3159    0.2502   23.4818 C.ar    1  UNL1        0.0045
     11 C           3.3329   -1.0208   19.8624 C.ar    1  UNL1        0.0031
     12 C           3.7584   -2.4503   20.0222 C.ar    1  UNL1        0.0207
     13 C           4.5096   -3.1369   18.9203 C.ar    1  UNL1        0.0989
     14 N           4.8352   -2.3941   17.6585 N.ar    1  UNL1       -0.2423
     15 C           4.4097   -0.9646   17.4986 C.ar    1  UNL1        0.0989
     16 C           3.6585   -0.2780   18.6006 C.ar    1  UNL1        0.0207
     17 C          -0.6905    3.8863   25.2921 C.3     1  UNL1        0.1167
     18 C          -4.4439    3.4248   24.0884 C.ar    1  UNL1        0.1385
     19 C          -5.1898    3.8226   25.3275 C.ar    1  UNL1        0.0369
     20 C          -4.4360    4.2416   26.5547 C.ar    1  UNL1        0.0028
     21 C          -2.9363    4.2628   26.5430 C.ar    1  UNL1       -0.0024
     22 C          -2.1903    3.8651   25.3039 C.ar    1  UNL1        0.0005
     23 C          -2.9441    3.4461   24.0766 C.ar    1  UNL1        0.0343
     24 C          -4.5757    3.1705   21.5062 C.3     1  UNL1        0.2525
     25 O          -5.1977    3.0058   22.8611 O.3     1  UNL1       -0.4714
@<TRIPOS>BOND
     1    24    25    1
     2    25    18    1
     3    18    19   ar
     4    19    20   ar
     5    20    21   ar
     6    21    22   ar
     7    22    17    1
     8    17     1    1
     9     1     2   am
    10     2     3    2
    11     2     5    1
    12     5     6   ar
    13     6     7   ar
    14     7     8   ar
    15     8    11    1
    16    11    12   ar
    17    12    13   ar
    18    13    14   ar
    19    14    15   ar
    20    15    16   ar
    21     8     9   ar
    22     9    10   ar
    23    22    23   ar
    24    23    18   ar
    25    10     5   ar
    26    16    11   ar
    27     1     4    1
