@<TRIPOS>MOLECULE
*****
 30 32 0 0 0
SMALL
GASTEIGER

@<TRIPOS>ATOM
      1 N          -8.1944  -17.2557   22.6414 N.pl3   1  UNL1       -0.3035
      2 C          -4.2781  -20.2386   20.7322 C.2     1  UNL1        0.4050
      3 O          -4.0892  -21.2897   19.6790 O.2     1  UNL1       -0.2262
      4 N          -5.6307  -19.6273   20.9477 N.am    1  UNL1       -0.2443
      5 C          -6.8813  -19.9645   20.1911 C.3     1  UNL1        0.0986
      6 C          -7.9939  -19.1170   20.7335 C.3     1  UNL1        0.0431
      7 C          -7.4309  -18.2562   21.8253 C.3     1  UNL1        0.0947
      8 C          -5.9704  -18.5716   21.9577 C.3     1  UNL1        0.1164
      9 C          -2.1411  -18.7918   21.0324 C.3     1  UNL1        0.2573
     10 O          -3.1141  -19.7988   21.5700 O.3     1  UNL1       -0.4304
     11 C          -9.6086  -17.5439   23.0502 C.ar    1  UNL1        0.0490
     12 C          -9.8968  -18.6406   24.0320 C.ar    1  UNL1        0.0153
     13 C         -11.3109  -18.9288   24.4408 C.ar    1  UNL1        0.0124
     14 C         -12.4369  -18.1203   23.8678 C.ar    1  UNL1        0.0791
     15 C         -12.1487  -17.0235   22.8859 C.ar    1  UNL1        0.0685
     16 CL        -13.2747  -16.2149   22.3128 Cl      1  UNL1       -0.0815
     17 C         -10.7346  -16.7353   22.4771 C.ar    1  UNL1        0.0266
     18 C         -13.8510  -18.4085   24.2766 C.1     1  UNL1        0.1013
     19 N         -15.2652  -18.6967   24.6853 N.1     1  UNL1       -0.1908
     20 C          -7.5438  -15.9670   23.0487 C.3     1  UNL1        0.1177
     21 C          -7.2054  -15.7200   24.4890 C.ar    1  UNL1        0.0015
     22 C          -8.3011  -15.5073   25.4910 C.ar    1  UNL1       -0.0027
     23 C          -7.9628  -15.2604   26.9313 C.ar    1  UNL1       -0.0003
     24 C          -6.5287  -15.2261   27.3696 C.ar    1  UNL1       -0.0001
     25 C          -5.4328  -15.4389   26.3676 C.ar    1  UNL1        0.0036
     26 C          -5.7712  -15.6858   24.9273 C.ar    1  UNL1        0.0691
     27 C          -4.6755  -15.8986   23.9252 C.3     1  UNL1        0.4183
     28 F          -3.5798  -16.1113   22.9232 F       1  UNL1       -0.1659
     29 F          -4.9876  -14.5704   23.3020 F       1  UNL1       -0.1659
     30 F          -4.3634  -17.2267   24.5485 F       1  UNL1       -0.1659
@<TRIPOS>BOND
     1     9    10    1
     2    10     2    1
     3     2     3    2
     4     2     4   am
     5     4     5    1
     6     5     6    1
     7     6     7    1
     8     7     1    1
     9     1    20    1
    10    20    21    1
    11    21    22   ar
    12    22    23   ar
    13    23    24   ar
    14    24    25   ar
    15    25    26   ar
    16    26    27    1
    17    27    28    1
    18    27    29    1
    19    27    30    1
    20     1    11    1
    21    11    12   ar
    22    12    13   ar
    23    13    14   ar
    24    14    18    1
    25    18    19    3
    26    14    15   ar
    27    15    16    1
    28    15    17   ar
    29     7     8    1
    30     8     4    1
    31    26    21   ar
    32    17    11   ar
@<TRIPOS>MOLECULE
*****
 30 32 0 0 0
SMALL
GASTEIGER

@<TRIPOS>ATOM
      1 N          -7.9976  -18.8740   21.7611 N.pl3   1  UNL1       -0.3035
      2 C          -2.7602  -19.5003   21.5193 C.2     1  UNL1        0.4050
      3 O          -1.7724  -20.3517   20.7781 O.2     1  UNL1       -0.2262
      4 N          -4.2296  -19.6632   21.2659 N.am    1  UNL1       -0.2443
      5 C          -4.8569  -20.6304   20.3061 C.3     1  UNL1        0.0986
      6 C          -6.3448  -20.4525   20.3748 C.3     1  UNL1        0.0431
      7 C          -6.6369  -19.3753   21.3771 C.3     1  UNL1        0.0947
      8 C          -5.3297  -18.8876   21.9278 C.3     1  UNL1        0.1164
      9 C          -2.1837  -17.0405   22.1251 C.3     1  UNL1        0.2573
     10 O          -2.2785  -18.4861   22.5139 O.3     1  UNL1       -0.4304
     11 C          -8.1655  -18.0237   22.9854 C.ar    1  UNL1        0.0490
     12 C          -8.8004  -18.5989   24.2167 C.ar    1  UNL1        0.0153
     13 C          -8.9683  -17.7486   25.4409 C.ar    1  UNL1        0.0124
     14 C          -8.5014  -16.3232   25.4339 C.ar    1  UNL1        0.0791
     15 C          -7.8665  -15.7480   24.2026 C.ar    1  UNL1        0.0685
     16 CL         -7.3996  -14.3225   24.1956 Cl      1  UNL1       -0.0815
     17 C          -7.6985  -16.5982   22.9784 C.ar    1  UNL1        0.0266
     18 C          -8.6694  -15.4729   26.6582 C.1     1  UNL1        0.1013
     19 N          -8.8373  -14.6226   27.8825 N.1     1  UNL1       -0.1908
     20 C          -9.1901  -19.2230   20.9210 C.3     1  UNL1        0.1177
     21 C         -10.3712  -18.2994   20.8748 C.ar    1  UNL1        0.0015
     22 C         -10.4115  -17.1830   19.8738 C.ar    1  UNL1       -0.0027
     23 C         -11.5925  -16.2594   19.8276 C.ar    1  UNL1       -0.0003
     24 C         -12.7332  -16.4522   20.7824 C.ar    1  UNL1       -0.0001
     25 C         -12.6929  -17.5687   21.7834 C.ar    1  UNL1        0.0036
     26 C         -11.5119  -18.4923   21.8296 C.ar    1  UNL1        0.0691
     27 C         -11.4716  -19.6087   22.8306 C.3     1  UNL1        0.4183
     28 F         -11.4312  -20.7251   23.8315 F       1  UNL1       -0.1659
     29 F         -11.1965  -20.5875   21.7278 F       1  UNL1       -0.1659
     30 F         -11.7466  -18.6298   23.9334 F       1  UNL1       -0.1659
@<TRIPOS>BOND
     1     9    10    1
     2    10     2    1
     3     2     3    2
     4     2     4   am
     5     4     5    1
     6     5     6    1
     7     6     7    1
     8     7     1    1
     9     1    20    1
    10    20    21    1
    11    21    22   ar
    12    22    23   ar
    13    23    24   ar
    14    24    25   ar
    15    25    26   ar
    16    26    27    1
    17    27    28    1
    18    27    29    1
    19    27    30    1
    20     1    11    1
    21    11    12   ar
    22    12    13   ar
    23    13    14   ar
    24    14    18    1
    25    18    19    3
    26    14    15   ar
    27    15    16    1
    28    15    17   ar
    29     7     8    1
    30     8     4    1
    31    26    21   ar
    32    17    11   ar
@<TRIPOS>MOLECULE
*****
 30 32 0 0 0
SMALL
GASTEIGER

@<TRIPOS>ATOM
      1 N          -8.1454  -18.1882   22.0755 N.pl3   1  UNL1       -0.3035
      2 C          -3.0190  -19.3763   21.6420 C.2     1  UNL1        0.4050
      3 O          -2.1591  -20.3438   20.8839 O.2     1  UNL1       -0.2262
      4 N          -4.5067  -19.3863   21.4513 N.am    1  UNL1       -0.2443
      5 C          -5.2729  -20.3006   20.5419 C.3     1  UNL1        0.0986
      6 C          -6.7293  -19.9631   20.6651 C.3     1  UNL1        0.0431
      7 C          -6.8631  -18.8402   21.6506 C.3     1  UNL1        0.0947
      8 C          -5.4895  -18.4837   22.1364 C.3     1  UNL1        0.1164
      9 C          -2.1628  -16.9794   22.1633 C.3     1  UNL1        0.2573
     10 O          -2.3909  -18.3989   22.5908 O.3     1  UNL1       -0.4304
     11 C          -8.1890  -17.3652   23.3289 C.ar    1  UNL1        0.0490
     12 C          -7.6952  -15.9489   23.3136 C.ar    1  UNL1        0.0153
     13 C          -7.7388  -15.1260   24.5670 C.ar    1  UNL1        0.0124
     14 C          -8.2760  -15.7193   25.8355 C.ar    1  UNL1        0.0791
     15 C          -8.7698  -17.1357   25.8508 C.ar    1  UNL1        0.0685
     16 CL         -9.3070  -17.7290   27.1193 Cl      1  UNL1       -0.0815
     17 C          -8.7263  -17.9586   24.5974 C.ar    1  UNL1        0.0266
     18 C          -8.3195  -14.8963   27.0888 C.1     1  UNL1        0.1013
     19 N          -8.3631  -14.0734   28.3422 N.1     1  UNL1       -0.1908
     20 C          -9.3842  -18.3592   21.2472 C.3     1  UNL1        0.1177
     21 C         -10.7332  -18.1153   21.8561 C.ar    1  UNL1        0.0015
     22 C         -11.2338  -19.0084   22.9523 C.ar    1  UNL1       -0.0027
     23 C         -12.5828  -18.7645   23.5612 C.ar    1  UNL1       -0.0003
     24 C         -13.4312  -17.6275   23.0738 C.ar    1  UNL1       -0.0001
     25 C         -12.9306  -16.7344   21.9775 C.ar    1  UNL1        0.0036
     26 C         -11.5816  -16.9783   21.3686 C.ar    1  UNL1        0.0691
     27 C         -11.0809  -16.0852   20.2724 C.3     1  UNL1        0.4183
     28 F         -10.5803  -15.1921   19.1762 F       1  UNL1       -0.1659
     29 F         -11.8396  -16.8969   19.2647 F       1  UNL1       -0.1659
     30 F         -10.3223  -15.2735   21.2801 F       1  UNL1       -0.1659
@<TRIPOS>BOND
     1     9    10    1
     2    10     2    1
     3     2     3    2
     4     2     4   am
     5     4     5    1
     6     5     6    1
     7     6     7    1
     8     7     1    1
     9     1    20    1
    10    20    21    1
    11    21    22   ar
    12    22    23   ar
    13    23    24   ar
    14    24    25   ar
    15    25    26   ar
    16    26    27    1
    17    27    28    1
    18    27    29    1
    19    27    30    1
    20     1    11    1
    21    11    12   ar
    22    12    13   ar
    23    13    14   ar
    24    14    18    1
    25    18    19    3
    26    14    15   ar
    27    15    16    1
    28    15    17   ar
    29     7     8    1
    30     8     4    1
    31    26    21   ar
    32    17    11   ar
@<TRIPOS>MOLECULE
*****
 30 32 0 0 0
SMALL
GASTEIGER

@<TRIPOS>ATOM
      1 N          -7.8547  -17.4761   22.3721 N.pl3   1  UNL1       -0.3035
      2 C          -4.1040  -20.6177   20.3864 C.2     1  UNL1        0.4050
      3 O          -3.9919  -21.7150   19.3698 O.2     1  UNL1       -0.2262
      4 N          -5.4312  -19.9694   20.6470 N.am    1  UNL1       -0.2443
      5 C          -6.7267  -20.3106   19.9722 C.3     1  UNL1        0.0986
      6 C          -7.7923  -19.4181   20.5363 C.3     1  UNL1        0.0431
      7 C          -7.1552  -18.5254   21.5597 C.3     1  UNL1        0.0947
      8 C          -5.6960  -18.8661   21.6281 C.3     1  UNL1        0.1164
      9 C          -2.0433  -19.0510   20.6078 C.3     1  UNL1        0.2573
     10 O          -2.8886  -20.1688   21.1423 O.3     1  UNL1       -0.4304
     11 C          -9.2633  -17.7018   22.8356 C.ar    1  UNL1        0.0490
     12 C          -9.5826  -18.8663   23.7255 C.ar    1  UNL1        0.0153
     13 C         -10.9912  -19.0920   24.1890 C.ar    1  UNL1        0.0124
     14 C         -12.0806  -18.1532   23.7626 C.ar    1  UNL1        0.0791
     15 C         -11.7613  -16.9886   22.8726 C.ar    1  UNL1        0.0685
     16 CL        -12.8507  -16.0498   22.4462 Cl      1  UNL1       -0.0815
     17 C         -10.3527  -16.7629   22.4091 C.ar    1  UNL1        0.0266
     18 C         -13.4892  -18.3789   24.2261 C.1     1  UNL1        0.1013
     19 N         -14.8978  -18.6046   24.6896 N.1     1  UNL1       -0.1908
     20 C          -7.1455  -16.2013   22.7209 C.3     1  UNL1        0.1177
     21 C          -6.4168  -16.0814   24.0265 C.ar    1  UNL1        0.0015
     22 C          -4.9578  -16.4205   24.1049 C.ar    1  UNL1       -0.0027
     23 C          -4.2290  -16.3006   25.4105 C.ar    1  UNL1       -0.0003
     24 C          -4.9594  -15.8417   26.6377 C.ar    1  UNL1       -0.0001
     25 C          -6.4185  -15.5026   26.5593 C.ar    1  UNL1        0.0036
     26 C          -7.1472  -15.6225   25.2537 C.ar    1  UNL1        0.0691
     27 C          -8.6062  -15.2834   25.1752 C.3     1  UNL1        0.4183
     28 F         -10.0653  -14.9443   25.0968 F       1  UNL1       -0.1659
     29 F          -8.9323  -16.4970   25.9943 F       1  UNL1       -0.1659
     30 F          -8.2802  -14.0698   24.3562 F       1  UNL1       -0.1659
@<TRIPOS>BOND
     1     9    10    1
     2    10     2    1
     3     2     3    2
     4     2     4   am
     5     4     5    1
     6     5     6    1
     7     6     7    1
     8     7     1    1
     9     1    20    1
    10    20    21    1
    11    21    22   ar
    12    22    23   ar
    13    23    24   ar
    14    24    25   ar
    15    25    26   ar
    16    26    27    1
    17    27    28    1
    18    27    29    1
    19    27    30    1
    20     1    11    1
    21    11    12   ar
    22    12    13   ar
    23    13    14   ar
    24    14    18    1
    25    18    19    3
    26    14    15   ar
    27    15    16    1
    28    15    17   ar
    29     7     8    1
    30     8     4    1
    31    26    21   ar
    32    17    11   ar
@<TRIPOS>MOLECULE
*****
 30 32 0 0 0
SMALL
GASTEIGER

@<TRIPOS>ATOM
      1 N          -7.7298  -18.3233   21.8924 N.pl3   1  UNL1       -0.3035
      2 C          -7.6847  -15.3340   26.2447 C.2     1  UNL1        0.4050
      3 O          -8.4842  -15.1885   27.5054 O.2     1  UNL1       -0.2262
      4 N          -8.0705  -16.3659   25.2268 N.am    1  UNL1       -0.2443
      5 C          -9.2245  -17.3186   25.3308 C.3     1  UNL1        0.0986
      6 C          -9.2373  -18.1678   24.0943 C.3     1  UNL1        0.0431
      7 C          -8.0913  -17.7399   23.2263 C.3     1  UNL1        0.0947
      8 C          -7.3702  -16.6263   23.9261 C.3     1  UNL1        0.1164
      9 C          -5.1141  -15.0219   26.0331 C.3     1  UNL1        0.2573
     10 O          -6.4993  -14.4474   26.0019 O.3     1  UNL1       -0.4304
     11 C          -6.2884  -18.4809   21.5085 C.ar    1  UNL1        0.0490
     12 C          -5.9264  -18.9626   20.1349 C.ar    1  UNL1        0.0153
     13 C          -4.4850  -19.1202   19.7510 C.ar    1  UNL1        0.0124
     14 C          -3.4055  -18.7959   20.7406 C.ar    1  UNL1        0.0791
     15 C          -3.7674  -18.3142   22.1143 C.ar    1  UNL1        0.0685
     16 CL         -2.6879  -17.9900   23.1040 Cl      1  UNL1       -0.0815
     17 C          -5.2089  -18.1566   22.4983 C.ar    1  UNL1        0.0266
     18 C          -1.9640  -18.9535   20.3567 C.1     1  UNL1        0.1013
     19 N          -0.5226  -19.1110   19.9728 N.1     1  UNL1       -0.1908
     20 C          -8.8098  -18.7492   20.9426 C.3     1  UNL1        0.1177
     21 C         -10.0895  -17.9705   20.8641 C.ar    1  UNL1        0.0015
     22 C         -10.0869  -16.5776   20.3077 C.ar    1  UNL1       -0.0027
     23 C         -11.3666  -15.7989   20.2292 C.ar    1  UNL1       -0.0003
     24 C         -12.6488  -16.4132   20.7071 C.ar    1  UNL1       -0.0001
     25 C         -12.6514  -17.8062   21.2635 C.ar    1  UNL1        0.0036
     26 C         -11.3718  -18.5849   21.3420 C.ar    1  UNL1        0.0691
     27 C         -11.3744  -19.9779   21.8984 C.3     1  UNL1        0.4183
     28 F         -11.3769  -21.3708   22.4548 F       1  UNL1       -0.1659
     29 F         -10.9896  -20.5162   20.5523 F       1  UNL1       -0.1659
     30 F         -11.7591  -19.4395   23.2445 F       1  UNL1       -0.1659
@<TRIPOS>BOND
     1     9    10    1
     2    10     2    1
     3     2     3    2
     4     2     4   am
     5     4     5    1
     6     5     6    1
     7     6     7    1
     8     7     1    1
     9     1    20    1
    10    20    21    1
    11    21    22   ar
    12    22    23   ar
    13    23    24   ar
    14    24    25   ar
    15    25    26   ar
    16    26    27    1
    17    27    28    1
    18    27    29    1
    19    27    30    1
    20     1    11    1
    21    11    12   ar
    22    12    13   ar
    23    13    14   ar
    24    14    18    1
    25    18    19    3
    26    14    15   ar
    27    15    16    1
    28    15    17   ar
    29     7     8    1
    30     8     4    1
    31    26    21   ar
    32    17    11   ar
@<TRIPOS>MOLECULE
*****
 30 32 0 0 0
SMALL
GASTEIGER

@<TRIPOS>ATOM
      1 N          -8.4483  -16.8171   22.4769 N.pl3   1  UNL1       -0.3035
      2 C         -13.3635  -18.1964   23.8255 C.2     1  UNL1        0.4050
      3 O         -14.7128  -18.2895   23.1770 O.2     1  UNL1       -0.2262
      4 N         -12.1795  -17.7323   23.0302 N.am    1  UNL1       -0.2443
      5 C         -12.1910  -17.3296   21.5852 C.3     1  UNL1        0.0986
      6 C         -10.7946  -16.9378   21.2021 C.3     1  UNL1        0.0431
      7 C          -9.9202  -17.0983   22.4103 C.3     1  UNL1        0.0947
      8 C         -10.7761  -17.5893   23.5400 C.3     1  UNL1        0.1164
      9 C         -14.3790  -18.5286   26.1937 C.3     1  UNL1        0.2573
     10 O         -13.1983  -18.5674   25.2695 O.3     1  UNL1       -0.4304
     11 C          -7.4709  -17.7946   21.8945 C.ar    1  UNL1        0.0490
     12 C          -7.8011  -18.5179   20.6227 C.ar    1  UNL1        0.0153
     13 C          -6.8237  -19.4955   20.0403 C.ar    1  UNL1        0.0124
     14 C          -5.5161  -19.7497   20.7298 C.ar    1  UNL1        0.0791
     15 C          -5.1858  -19.0263   22.0018 C.ar    1  UNL1        0.0685
     16 CL         -3.8782  -19.2805   22.6913 Cl      1  UNL1       -0.0815
     17 C          -6.1632  -18.0488   22.5841 C.ar    1  UNL1        0.0266
     18 C          -4.5387  -20.7272   20.1475 C.1     1  UNL1        0.1013
     19 N          -3.5613  -21.7047   19.5651 N.1     1  UNL1       -0.1908
     20 C          -7.9538  -15.5584   23.1259 C.3     1  UNL1        0.1177
     21 C          -7.6455  -15.5425   24.5937 C.ar    1  UNL1        0.0015
     22 C          -8.7621  -15.4963   25.5942 C.ar    1  UNL1       -0.0027
     23 C          -8.4538  -15.4805   27.0621 C.ar    1  UNL1       -0.0003
     24 C          -7.0289  -15.5108   27.5295 C.ar    1  UNL1       -0.0001
     25 C          -5.9122  -15.5571   26.5291 C.ar    1  UNL1        0.0036
     26 C          -6.2205  -15.5729   25.0612 C.ar    1  UNL1        0.0691
     27 C          -5.1038  -15.6192   24.0608 C.3     1  UNL1        0.4183
     28 F          -3.9872  -15.6654   23.0603 F       1  UNL1       -0.1659
     29 F          -5.7542  -14.5132   23.2837 F       1  UNL1       -0.1659
     30 F          -4.4534  -16.7251   24.8378 F       1  UNL1       -0.1659
@<TRIPOS>BOND
     1     9    10    1
     2    10     2    1
     3     2     3    2
     4     2     4   am
     5     4     5    1
     6     5     6    1
     7     6     7    1
     8     7     1    1
     9     1    20    1
    10    20    21    1
    11    21    22   ar
    12    22    23   ar
    13    23    24   ar
    14    24    25   ar
    15    25    26   ar
    16    26    27    1
    17    27    28    1
    18    27    29    1
    19    27    30    1
    20     1    11    1
    21    11    12   ar
    22    12    13   ar
    23    13    14   ar
    24    14    18    1
    25    18    19    3
    26    14    15   ar
    27    15    16    1
    28    15    17   ar
    29     7     8    1
    30     8     4    1
    31    26    21   ar
    32    17    11   ar
@<TRIPOS>MOLECULE
*****
 30 32 0 0 0
SMALL
GASTEIGER

@<TRIPOS>ATOM
      1 N         -13.6900   -4.5886   17.4291 N.pl3   1  UNL1       -0.3035
      2 C         -17.9680   -7.6676   17.7431 C.2     1  UNL1        0.4050
      3 O         -18.5413   -8.6869   18.6824 O.2     1  UNL1       -0.2262
      4 N         -16.6599   -7.0063   18.0615 N.am    1  UNL1       -0.2443
      5 C         -15.8154   -7.2609   19.2748 C.3     1  UNL1        0.0986
      6 C         -14.6001   -6.3862   19.1856 C.3     1  UNL1        0.0431
      7 C         -14.6935   -5.5910   17.9171 C.3     1  UNL1        0.0947
      8 C         -15.9665   -5.9742   17.2224 C.3     1  UNL1        0.1164
      9 C         -19.6886   -6.1790   16.4887 C.3     1  UNL1        0.2573
     10 O         -18.7030   -7.3096   16.4855 O.3     1  UNL1       -0.4304
     11 C         -13.8974   -3.1276   17.6985 C.ar    1  UNL1        0.0490
     12 C         -13.2225   -2.1027   16.8359 C.ar    1  UNL1        0.0153
     13 C         -13.4298   -0.6417   17.1053 C.ar    1  UNL1        0.0124
     14 C         -14.3121   -0.2057   18.2372 C.ar    1  UNL1        0.0791
     15 C         -14.9871   -1.2306   19.0999 C.ar    1  UNL1        0.0685
     16 CL        -15.8694   -0.7945   20.2318 Cl      1  UNL1       -0.0815
     17 C         -14.7797   -2.6915   18.8305 C.ar    1  UNL1        0.0266
     18 C         -14.5195    1.2553   18.5066 C.1     1  UNL1        0.1013
     19 N         -14.7269    2.7163   18.7760 N.1     1  UNL1       -0.1908
     20 C         -12.4792   -5.0471   16.6717 C.3     1  UNL1        0.1177
     21 C         -11.4474   -5.8979   17.3510 C.ar    1  UNL1        0.0015
     22 C         -11.3631   -7.3636   17.0432 C.ar    1  UNL1       -0.0027
     23 C         -10.3313   -8.2144   17.7225 C.ar    1  UNL1       -0.0003
     24 C          -9.3838   -7.5997   18.7095 C.ar    1  UNL1       -0.0001
     25 C          -9.4681   -6.1340   19.0173 C.ar    1  UNL1        0.0036
     26 C         -10.4999   -5.2831   18.3381 C.ar    1  UNL1        0.0691
     27 C         -10.5842   -3.8175   18.6458 C.3     1  UNL1        0.4183
     28 F         -10.6685   -2.3518   18.9536 F       1  UNL1       -0.1659
     29 F          -9.5584   -3.5364   17.5882 F       1  UNL1       -0.1659
     30 F         -11.6100   -4.0986   19.7035 F       1  UNL1       -0.1659
@<TRIPOS>BOND
     1     9    10    1
     2    10     2    1
     3     2     3    2
     4     2     4   am
     5     4     5    1
     6     5     6    1
     7     6     7    1
     8     7     1    1
     9     1    20    1
    10    20    21    1
    11    21    22   ar
    12    22    23   ar
    13    23    24   ar
    14    24    25   ar
    15    25    26   ar
    16    26    27    1
    17    27    28    1
    18    27    29    1
    19    27    30    1
    20     1    11    1
    21    11    12   ar
    22    12    13   ar
    23    13    14   ar
    24    14    18    1
    25    18    19    3
    26    14    15   ar
    27    15    16    1
    28    15    17   ar
    29     7     8    1
    30     8     4    1
    31    26    21   ar
    32    17    11   ar
