@<TRIPOS>MOLECULE
*****
 32 35 0 0 0
SMALL
GASTEIGER

@<TRIPOS>ATOM
      1 C          -8.9190  -18.3591   21.0079 C.ar    1  UNL1        0.0951
      2 C          -9.7287  -18.9120   19.8728 C.ar    1  UNL1        0.1454
      3 F         -11.1171  -18.4019   19.6237 F       1  UNL1       -0.2040
      4 C          -9.1500  -19.9750   18.9867 C.ar    1  UNL1        0.0312
      5 C          -7.7615  -20.4851   19.2358 C.ar    1  UNL1        0.0204
      6 C          -6.9518  -19.9322   20.3710 C.ar    1  UNL1        0.0924
      7 C          -7.5305  -18.8691   21.2571 C.ar    1  UNL1        0.1598
      8 F          -6.7207  -18.3162   22.3923 F       1  UNL1       -0.2026
      9 C          -9.4977  -17.2960   21.8940 C.2     1  UNL1        0.2036
     10 O          -9.8430  -15.9517   21.3253 O.2     1  UNL1       -0.2863
     11 C          -5.9370  -14.8371   25.9024 C.3     1  UNL1        0.0307
     12 C          -7.1269  -15.7493   25.8568 C.2     1  UNL1        0.0074
     13 C          -7.7093  -16.2866   27.1303 C.2     1  UNL1        0.2278
     14 N          -8.8991  -17.1989   27.0847 N.2     1  UNL1       -0.0314
     15 C          -9.5065  -17.5739   25.7655 C.2     1  UNL1        0.3720
     16 N         -10.6733  -18.4467   25.4095 N.2     1  UNL1       -0.0307
     17 C         -10.8120  -18.4489   23.9160 C.2     1  UNL1        0.2390
     18 C          -9.7310  -17.5774   23.3488 C.2     1  UNL1        0.0896
     19 C          -8.9241  -17.0366   24.4919 C.2     1  UNL1        0.0771
     20 C          -7.7343  -16.1243   24.5375 C.3     1  UNL1        0.0602
     21 N          -5.5634  -20.4423   20.6201 N.pl3   1  UNL1       -0.2128
     22 H          -5.4056  -21.4082   20.7268 H       1  UNL1        0.1738
     23 S          -4.4154  -19.4808   20.7067 S.O2    1  UNL1        0.0737
     24 O          -4.1249  -19.9530   22.1004 O.2     1  UNL1       -0.1499
     25 O          -4.7058  -19.0084   19.3130 O.2     1  UNL1       -0.1499
     26 C          -3.2673  -18.5192   20.7933 C.ar    1  UNL1        0.1274
     27 C          -3.2584  -17.4551   21.8505 C.ar    1  UNL1        0.0203
     28 C          -2.1104  -16.4936   21.9371 C.ar    1  UNL1        0.0037
     29 C          -0.9714  -16.5960   20.9664 C.ar    1  UNL1        0.0297
     30 C          -0.9803  -17.6600   19.9092 C.ar    1  UNL1        0.1415
     31 F           0.1587  -17.7625   18.9385 F       1  UNL1       -0.2041
     32 C          -2.1283  -18.6216   19.8226 C.ar    1  UNL1        0.0498
@<TRIPOS>BOND
     1    11    12    1
     2    12    13    2
     3    13    14    1
     4    14    15    2
     5    15    16    1
     6    16    17    2
     7    17    18    1
     8    18     9    1
     9     9    10    2
    10     9     1    1
    11     1     2   ar
    12     2     3    1
    13     2     4   ar
    14     4     5   ar
    15     5     6   ar
    16     6    21    1
    17    21    23    1
    18    23    24    2
    19    23    25    2
    20    23    26    1
    21    26    27   ar
    22    27    28   ar
    23    28    29   ar
    24    29    30   ar
    25    30    31    1
    26    30    32   ar
    27     6     7   ar
    28     7     8    1
    29    18    19    2
    30    19    20    1
    31    20    12    1
    32    19    15    1
    33     7     1   ar
    34    32    26   ar
    35    21    22    1
@<TRIPOS>MOLECULE
*****
 32 35 0 0 0
SMALL
GASTEIGER

@<TRIPOS>ATOM
      1 C          -7.7254  -19.5319   20.3484 C.ar    1  UNL1        0.0951
      2 C          -8.7773  -20.0463   19.4110 C.ar    1  UNL1        0.1454
      3 F          -8.4969  -21.2451   18.5541 F       1  UNL1       -0.2040
      4 C         -10.1097  -19.3619   19.3305 C.ar    1  UNL1        0.0312
      5 C         -10.3901  -18.1632   20.1874 C.ar    1  UNL1        0.0204
      6 C          -9.3381  -17.6488   21.1249 C.ar    1  UNL1        0.0924
      7 C          -8.0057  -18.3331   21.2054 C.ar    1  UNL1        0.1598
      8 F          -6.9538  -17.8187   22.1428 F       1  UNL1       -0.2026
      9 C          -6.3930  -20.2163   20.4289 C.2     1  UNL1        0.2036
     10 O          -6.1722  -21.5147   19.7110 O.2     1  UNL1       -0.2863
     11 C          -1.9783  -17.5133   17.6013 C.3     1  UNL1        0.0307
     12 C          -2.3983  -17.8205   19.0082 C.2     1  UNL1        0.0074
     13 C          -1.5469  -17.3739   20.1595 C.2     1  UNL1        0.2278
     14 N          -1.9669  -17.6812   21.5664 N.2     1  UNL1       -0.0314
     15 C          -3.2383  -18.4350   21.8218 C.2     1  UNL1        0.3720
     16 N          -3.9039  -18.8797   23.0904 N.2     1  UNL1       -0.0307
     17 C          -5.1667  -19.6011   22.7230 C.2     1  UNL1        0.2390
     18 C          -5.2816  -19.6023   21.2274 C.2     1  UNL1        0.0896
     19 C          -4.0897  -18.8816   20.6705 C.2     1  UNL1        0.0771
     20 C          -3.6697  -18.5743   19.2636 C.3     1  UNL1        0.0602
     21 N          -9.6185  -16.4500   21.9818 N.pl3   1  UNL1       -0.2128
     22 H         -10.2630  -15.7695   21.6805 H       1  UNL1        0.1738
     23 S          -8.9169  -16.2880   23.2977 S.O2    1  UNL1        0.0737
     24 O          -8.0394  -15.2288   22.6995 O.2     1  UNL1       -0.1499
     25 O          -9.7945  -17.3473   23.8959 O.2     1  UNL1       -0.1499
     26 C          -8.2154  -16.1261   24.6136 C.ar    1  UNL1        0.1274
     27 C          -8.8831  -16.5750   25.8796 C.ar    1  UNL1        0.0203
     28 C          -8.1816  -16.4131   27.1956 C.ar    1  UNL1        0.0037
     29 C          -6.8125  -15.8024   27.2455 C.ar    1  UNL1        0.0297
     30 C          -6.1448  -15.3535   25.9795 C.ar    1  UNL1        0.1415
     31 F          -4.7756  -14.7428   26.0295 F       1  UNL1       -0.2041
     32 C          -6.8462  -15.5154   24.6636 C.ar    1  UNL1        0.0498
@<TRIPOS>BOND
     1    11    12    1
     2    12    13    2
     3    13    14    1
     4    14    15    2
     5    15    16    1
     6    16    17    2
     7    17    18    1
     8    18     9    1
     9     9    10    2
    10     9     1    1
    11     1     2   ar
    12     2     3    1
    13     2     4   ar
    14     4     5   ar
    15     5     6   ar
    16     6    21    1
    17    21    23    1
    18    23    24    2
    19    23    25    2
    20    23    26    1
    21    26    27   ar
    22    27    28   ar
    23    28    29   ar
    24    29    30   ar
    25    30    31    1
    26    30    32   ar
    27     6     7   ar
    28     7     8    1
    29    18    19    2
    30    19    20    1
    31    20    12    1
    32    19    15    1
    33     7     1   ar
    34    32    26   ar
    35    21    22    1
@<TRIPOS>MOLECULE
*****
 32 35 0 0 0
SMALL
GASTEIGER

@<TRIPOS>ATOM
      1 C          -8.4309  -16.9996   25.2435 C.ar    1  UNL1        0.0951
      2 C          -8.4262  -16.7450   26.7217 C.ar    1  UNL1        0.1454
      3 F          -9.5111  -17.3175   27.5848 F       1  UNL1       -0.2040
      4 C          -7.3365  -15.9178   27.3368 C.ar    1  UNL1        0.0312
      5 C          -6.2515  -15.3452   26.4736 C.ar    1  UNL1        0.0204
      6 C          -6.2563  -15.5999   24.9954 C.ar    1  UNL1        0.0924
      7 C          -7.3460  -16.4271   24.3803 C.ar    1  UNL1        0.1598
      8 F          -7.3506  -16.6817   22.9021 F       1  UNL1       -0.2026
      9 C          -9.5206  -17.8268   24.6284 C.2     1  UNL1        0.2036
     10 O          -9.7508  -19.2327   25.0979 O.2     1  UNL1       -0.2863
     11 C          -9.2815  -20.1653   19.2186 C.3     1  UNL1        0.0307
     12 C          -9.9971  -19.0634   19.9422 C.2     1  UNL1        0.0074
     13 C         -10.9841  -18.2029   19.2105 C.2     1  UNL1        0.2278
     14 N         -11.6996  -17.1009   19.9342 N.2     1  UNL1       -0.0314
     15 C         -11.4282  -16.8594   21.3895 C.2     1  UNL1        0.3720
     16 N         -11.9770  -15.8558   22.3598 N.2     1  UNL1       -0.0307
     17 C         -11.3293  -16.0961   23.6913 C.2     1  UNL1        0.2390
     18 C         -10.3801  -17.2481   23.5438 C.2     1  UNL1        0.0896
     19 C         -10.4412  -17.7199   22.1212 C.2     1  UNL1        0.0771
     20 C          -9.7257  -18.8219   21.3975 C.3     1  UNL1        0.0602
     21 N          -5.1713  -15.0273   24.1322 N.pl3   1  UNL1       -0.2128
     22 H          -5.0484  -14.0520   24.0783 H       1  UNL1        0.1738
     23 S          -4.2736  -15.9407   23.3513 S.O2    1  UNL1        0.0737
     24 O          -4.0326  -14.8490   22.3513 O.2     1  UNL1       -0.1499
     25 O          -4.5146  -17.0325   24.3513 O.2     1  UNL1       -0.1499
     26 C          -3.3759  -16.8542   22.5704 C.ar    1  UNL1        0.1274
     27 C          -3.5914  -18.3379   22.6177 C.ar    1  UNL1        0.0203
     28 C          -2.6938  -19.2514   21.8368 C.ar    1  UNL1        0.0037
     29 C          -1.5807  -18.6812   21.0086 C.ar    1  UNL1        0.0297
     30 C          -1.3652  -17.1976   20.9613 C.ar    1  UNL1        0.1415
     31 F          -0.2521  -16.6274   20.1331 F       1  UNL1       -0.2041
     32 C          -2.2628  -16.2840   21.7422 C.ar    1  UNL1        0.0498
@<TRIPOS>BOND
     1    11    12    1
     2    12    13    2
     3    13    14    1
     4    14    15    2
     5    15    16    1
     6    16    17    2
     7    17    18    1
     8    18     9    1
     9     9    10    2
    10     9     1    1
    11     1     2   ar
    12     2     3    1
    13     2     4   ar
    14     4     5   ar
    15     5     6   ar
    16     6    21    1
    17    21    23    1
    18    23    24    2
    19    23    25    2
    20    23    26    1
    21    26    27   ar
    22    27    28   ar
    23    28    29   ar
    24    29    30   ar
    25    30    31    1
    26    30    32   ar
    27     6     7   ar
    28     7     8    1
    29    18    19    2
    30    19    20    1
    31    20    12    1
    32    19    15    1
    33     7     1   ar
    34    32    26   ar
    35    21    22    1
@<TRIPOS>MOLECULE
*****
 32 35 0 0 0
SMALL
GASTEIGER

@<TRIPOS>ATOM
      1 C          -7.9462  -15.8426   25.0159 C.ar    1  UNL1        0.0951
      2 C          -7.6167  -15.8786   26.4787 C.ar    1  UNL1        0.1454
      3 F          -8.7016  -16.1203   27.4861 F       1  UNL1       -0.2040
      4 C          -6.2025  -15.6729   26.9343 C.ar    1  UNL1        0.0312
      5 C          -5.1177  -15.4311   25.9270 C.ar    1  UNL1        0.0204
      6 C          -5.4472  -15.3951   24.4640 C.ar    1  UNL1        0.0924
      7 C          -6.8615  -15.6008   24.0084 C.ar    1  UNL1        0.1598
      8 F          -7.1909  -15.5648   22.5455 F       1  UNL1       -0.2026
      9 C          -9.3605  -16.0483   24.5603 C.2     1  UNL1        0.2036
     10 O         -10.3939  -14.9930   24.8222 O.2     1  UNL1       -0.2863
     11 C         -11.5719  -15.6923   19.1037 C.3     1  UNL1        0.0307
     12 C         -11.2290  -16.7436   20.1172 C.2     1  UNL1        0.0074
     13 C         -11.4579  -18.1921   19.8020 C.2     1  UNL1        0.2278
     14 N         -11.1151  -19.2435   20.8155 N.2     1  UNL1       -0.0314
     15 C         -10.5433  -18.8463   22.1441 C.2     1  UNL1        0.3720
     16 N         -10.1118  -19.6530   23.3328 N.2     1  UNL1       -0.0307
     17 C          -9.6162  -18.7031   24.3826 C.2     1  UNL1        0.2390
     18 C          -9.7414  -17.3092   23.8427 C.2     1  UNL1        0.0896
     19 C         -10.3144  -17.3978   22.4593 C.2     1  UNL1        0.0771
     20 C         -10.6573  -16.3464   21.4458 C.3     1  UNL1        0.0602
     21 N          -4.3624  -15.1534   23.4567 N.pl3   1  UNL1       -0.2128
     22 H          -4.0669  -14.2346   23.2624 H       1  UNL1        0.1738
     23 S          -3.7278  -16.3115   22.7453 S.O2    1  UNL1        0.0737
     24 O          -4.5730  -17.2626   23.5395 O.2     1  UNL1       -0.1499
     25 O          -2.8825  -15.3604   21.9510 O.2     1  UNL1       -0.1499
     26 C          -3.0932  -17.4696   22.0338 C.ar    1  UNL1        0.1274
     27 C          -3.6169  -18.8589   22.2472 C.ar    1  UNL1        0.0203
     28 C          -2.9823  -20.0171   21.5358 C.ar    1  UNL1        0.0037
     29 C          -1.8241  -19.7859   20.6111 C.ar    1  UNL1        0.0297
     30 C          -1.3005  -18.3965   20.3977 C.ar    1  UNL1        0.1415
     31 F          -0.1423  -18.1653   19.4730 F       1  UNL1       -0.2041
     32 C          -1.9350  -17.2384   21.1091 C.ar    1  UNL1        0.0498
@<TRIPOS>BOND
     1    11    12    1
     2    12    13    2
     3    13    14    1
     4    14    15    2
     5    15    16    1
     6    16    17    2
     7    17    18    1
     8    18     9    1
     9     9    10    2
    10     9     1    1
    11     1     2   ar
    12     2     3    1
    13     2     4   ar
    14     4     5   ar
    15     5     6   ar
    16     6    21    1
    17    21    23    1
    18    23    24    2
    19    23    25    2
    20    23    26    1
    21    26    27   ar
    22    27    28   ar
    23    28    29   ar
    24    29    30   ar
    25    30    31    1
    26    30    32   ar
    27     6     7   ar
    28     7     8    1
    29    18    19    2
    30    19    20    1
    31    20    12    1
    32    19    15    1
    33     7     1   ar
    34    32    26   ar
    35    21    22    1
@<TRIPOS>MOLECULE
*****
 32 35 0 0 0
SMALL
GASTEIGER

@<TRIPOS>ATOM
      1 C          -9.8297  -17.6062   21.3930 C.ar    1  UNL1        0.0951
      2 C         -10.9820  -17.7803   20.4487 C.ar    1  UNL1        0.1454
      3 F         -12.1804  -16.8844   20.5546 F       1  UNL1       -0.2040
      4 C         -10.9360  -18.8502   19.3984 C.ar    1  UNL1        0.0312
      5 C          -9.7376  -19.7462   19.2925 C.ar    1  UNL1        0.0204
      6 C          -8.5853  -19.5720   20.2369 C.ar    1  UNL1        0.0924
      7 C          -8.6313  -18.5021   21.2871 C.ar    1  UNL1        0.1598
      8 F          -7.4789  -18.3280   22.2315 F       1  UNL1       -0.2026
      9 C          -9.8758  -16.5362   22.4433 C.2     1  UNL1        0.2036
     10 O         -11.1879  -16.1383   23.0516 O.2     1  UNL1       -0.2863
     11 C          -8.4579  -16.5610   28.1687 C.3     1  UNL1        0.0307
     12 C          -7.9079  -16.0477   26.8711 C.2     1  UNL1        0.0074
     13 C          -6.6132  -15.2905   26.8524 C.2     1  UNL1        0.2278
     14 N          -6.0632  -14.7771   25.5547 N.2     1  UNL1       -0.0314
     15 C          -6.8079  -15.0210   24.2757 C.2     1  UNL1        0.3720
     16 N          -6.5148  -14.6390   22.8551 N.2     1  UNL1       -0.0307
     17 C          -7.6283  -15.1601   21.9957 C.2     1  UNL1        0.2390
     18 C          -8.6097  -15.8642   22.8852 C.2     1  UNL1        0.0896
     19 C          -8.1026  -15.7781   24.2944 C.2     1  UNL1        0.0771
     20 C          -8.6526  -16.2915   25.5920 C.3     1  UNL1        0.0602
     21 N          -7.3869  -20.4679   20.1309 N.pl3   1  UNL1       -0.2128
     22 H          -7.4992  -21.4123   19.8762 H       1  UNL1        0.1738
     23 S          -6.0173  -19.9251   20.4131 S.O2    1  UNL1        0.0737
     24 O          -6.2011  -18.9002   19.3335 O.2     1  UNL1       -0.1499
     25 O          -5.8335  -20.9501   21.4928 O.2     1  UNL1       -0.1499
     26 C          -4.6477  -19.3823   20.6953 C.ar    1  UNL1        0.1274
     27 C          -4.1986  -19.1796   22.1121 C.ar    1  UNL1        0.0203
     28 C          -2.8291  -18.6368   22.3944 C.ar    1  UNL1        0.0037
     29 C          -1.9086  -18.2967   21.2599 C.ar    1  UNL1        0.0297
     30 C          -2.3577  -18.4994   19.8431 C.ar    1  UNL1        0.1415
     31 F          -1.4372  -18.1593   18.7087 F       1  UNL1       -0.2041
     32 C          -3.7272  -19.0422   19.5609 C.ar    1  UNL1        0.0498
@<TRIPOS>BOND
     1    11    12    1
     2    12    13    2
     3    13    14    1
     4    14    15    2
     5    15    16    1
     6    16    17    2
     7    17    18    1
     8    18     9    1
     9     9    10    2
    10     9     1    1
    11     1     2   ar
    12     2     3    1
    13     2     4   ar
    14     4     5   ar
    15     5     6   ar
    16     6    21    1
    17    21    23    1
    18    23    24    2
    19    23    25    2
    20    23    26    1
    21    26    27   ar
    22    27    28   ar
    23    28    29   ar
    24    29    30   ar
    25    30    31    1
    26    30    32   ar
    27     6     7   ar
    28     7     8    1
    29    18    19    2
    30    19    20    1
    31    20    12    1
    32    19    15    1
    33     7     1   ar
    34    32    26   ar
    35    21    22    1
@<TRIPOS>MOLECULE
*****
 32 35 0 0 0
SMALL
GASTEIGER

@<TRIPOS>ATOM
      1 C          -7.6345  -19.5305   20.4836 C.ar    1  UNL1        0.0951
      2 C          -8.6031  -20.0426   19.4592 C.ar    1  UNL1        0.1454
      3 F          -8.2091  -21.1707   18.5525 F       1  UNL1       -0.2040
      4 C          -9.9657  -19.4266   19.3415 C.ar    1  UNL1        0.0312
      5 C         -10.3597  -18.2985   20.2482 C.ar    1  UNL1        0.0204
      6 C          -9.3910  -17.7865   21.2727 C.ar    1  UNL1        0.0924
      7 C          -8.0284  -18.4024   21.3905 C.ar    1  UNL1        0.1598
      8 F          -7.0599  -17.8903   22.4149 F       1  UNL1       -0.2026
      9 C          -6.2719  -20.1465   20.6014 C.2     1  UNL1        0.2036
     10 O          -6.1330  -21.5999   20.9456 O.2     1  UNL1       -0.2863
     11 C          -3.5306  -17.7517   25.2428 C.3     1  UNL1        0.0307
     12 C          -3.3895  -17.8029   23.7503 C.2     1  UNL1        0.0074
     13 C          -2.2614  -17.0777   23.0783 C.2     1  UNL1        0.2278
     14 N          -2.1203  -17.1289   21.5859 N.2     1  UNL1       -0.0314
     15 C          -3.1071  -17.9053   20.7654 C.2     1  UNL1        0.3720
     16 N          -3.2229  -18.1357   19.2877 N.2     1  UNL1       -0.0307
     17 C          -4.4226  -19.0033   19.0464 C.2     1  UNL1        0.2390
     18 C          -5.0482  -19.3091   20.3749 C.2     1  UNL1        0.0896
     19 C          -4.2351  -18.6305   21.4373 C.2     1  UNL1        0.0771
     20 C          -4.3763  -18.5794   22.9298 C.3     1  UNL1        0.0602
     21 N          -9.7851  -16.6584   22.1795 N.pl3   1  UNL1       -0.2128
     22 H         -10.5351  -16.0694   21.9351 H       1  UNL1        0.1738
     23 S          -9.0363  -16.4277   23.4585 S.O2    1  UNL1        0.0737
     24 O          -8.2428  -15.3397   22.7979 O.2     1  UNL1       -0.1499
     25 O          -9.8298  -17.5157   24.1193 O.2     1  UNL1       -0.1499
     26 C          -8.2875  -16.1970   24.7377 C.ar    1  UNL1        0.1274
     27 C          -8.8993  -16.5974   26.0475 C.ar    1  UNL1        0.0203
     28 C          -8.1506  -16.3667   27.3266 C.ar    1  UNL1        0.0037
     29 C          -6.7901  -15.7358   27.2960 C.ar    1  UNL1        0.0297
     30 C          -6.1783  -15.3354   25.9863 C.ar    1  UNL1        0.1415
     31 F          -4.8178  -14.7044   25.9557 F       1  UNL1       -0.2041
     32 C          -6.9270  -15.5660   24.7072 C.ar    1  UNL1        0.0498
@<TRIPOS>BOND
     1    11    12    1
     2    12    13    2
     3    13    14    1
     4    14    15    2
     5    15    16    1
     6    16    17    2
     7    17    18    1
     8    18     9    1
     9     9    10    2
    10     9     1    1
    11     1     2   ar
    12     2     3    1
    13     2     4   ar
    14     4     5   ar
    15     5     6   ar
    16     6    21    1
    17    21    23    1
    18    23    24    2
    19    23    25    2
    20    23    26    1
    21    26    27   ar
    22    27    28   ar
    23    28    29   ar
    24    29    30   ar
    25    30    31    1
    26    30    32   ar
    27     6     7   ar
    28     7     8    1
    29    18    19    2
    30    19    20    1
    31    20    12    1
    32    19    15    1
    33     7     1   ar
    34    32    26   ar
    35    21    22    1
@<TRIPOS>MOLECULE
*****
 32 35 0 0 0
SMALL
GASTEIGER

@<TRIPOS>ATOM
      1 C          -8.7792  -17.6451   23.6161 C.ar    1  UNL1        0.0951
      2 C          -8.1273  -16.4011   24.1426 C.ar    1  UNL1        0.1454
      3 F          -8.9366  -15.3971   24.9088 F       1  UNL1       -0.2040
      4 C          -6.6662  -16.1609   23.9029 C.ar    1  UNL1        0.0312
      5 C          -5.8569  -17.1649   23.1367 C.ar    1  UNL1        0.0204
      6 C          -6.5089  -18.4091   22.6101 C.ar    1  UNL1        0.0924
      7 C          -7.9700  -18.6492   22.8498 C.ar    1  UNL1        0.1598
      8 F          -8.6218  -19.8933   22.3233 F       1  UNL1       -0.2026
      9 C         -10.2403  -17.8852   23.8557 C.2     1  UNL1        0.2036
     10 O         -10.7181  -18.3084   25.2132 O.2     1  UNL1       -0.2863
     11 C          -9.1017  -13.9088   19.6506 C.3     1  UNL1        0.0307
     12 C         -10.1668  -14.9033   20.0062 C.2     1  UNL1        0.0074
     13 C         -11.3739  -15.0554   19.1288 C.2     1  UNL1        0.2278
     14 N         -12.4390  -16.0500   19.4844 N.2     1  UNL1       -0.0314
     15 C         -12.2970  -16.8925   20.7173 C.2     1  UNL1        0.3720
     16 N         -13.1769  -17.9482   21.3184 N.2     1  UNL1       -0.0307
     17 C         -12.5135  -18.4486   22.5672 C.2     1  UNL1        0.2390
     18 C         -11.2237  -17.7021   22.7379 C.2     1  UNL1        0.0896
     19 C         -11.0899  -16.7404   21.5946 C.2     1  UNL1        0.0771
     20 C         -10.0248  -15.7458   21.2390 C.3     1  UNL1        0.0602
     21 N          -5.6996  -19.4131   21.8439 N.pl3   1  UNL1       -0.2128
     22 H          -6.0211  -20.3393   21.7544 H       1  UNL1        0.1738
     23 S          -4.4005  -19.0059   21.2142 S.O2    1  UNL1        0.0737
     24 O          -5.1419  -18.4974   20.0135 O.2     1  UNL1       -0.1499
     25 O          -3.6591  -19.5144   22.4149 O.2     1  UNL1       -0.1499
     26 C          -3.1014  -18.5987   20.5844 C.ar    1  UNL1        0.1274
     27 C          -1.8449  -18.5785   21.4034 C.ar    1  UNL1        0.0203
     28 C          -0.5457  -18.1713   20.7738 C.ar    1  UNL1        0.0037
     29 C          -0.5031  -17.7844   19.3252 C.ar    1  UNL1        0.0297
     30 C          -1.7596  -17.8046   18.5062 C.ar    1  UNL1        0.1415
     31 F          -1.7170  -17.4177   17.0576 F       1  UNL1       -0.2041
     32 C          -3.0587  -18.2118   19.1358 C.ar    1  UNL1        0.0498
@<TRIPOS>BOND
     1    11    12    1
     2    12    13    2
     3    13    14    1
     4    14    15    2
     5    15    16    1
     6    16    17    2
     7    17    18    1
     8    18     9    1
     9     9    10    2
    10     9     1    1
    11     1     2   ar
    12     2     3    1
    13     2     4   ar
    14     4     5   ar
    15     5     6   ar
    16     6    21    1
    17    21    23    1
    18    23    24    2
    19    23    25    2
    20    23    26    1
    21    26    27   ar
    22    27    28   ar
    23    28    29   ar
    24    29    30   ar
    25    30    31    1
    26    30    32   ar
    27     6     7   ar
    28     7     8    1
    29    18    19    2
    30    19    20    1
    31    20    12    1
    32    19    15    1
    33     7     1   ar
    34    32    26   ar
    35    21    22    1
@<TRIPOS>MOLECULE
*****
 32 35 0 0 0
SMALL
GASTEIGER

@<TRIPOS>ATOM
      1 C          -7.1084  -15.9489   23.4936 C.ar    1  UNL1        0.0951
      2 C          -7.1552  -15.1467   24.7601 C.ar    1  UNL1        0.1454
      3 F          -8.2931  -14.2011   25.0072 F       1  UNL1       -0.2040
      4 C          -6.0642  -15.2900   25.7795 C.ar    1  UNL1        0.0312
      5 C          -4.9263  -16.2356   25.5323 C.ar    1  UNL1        0.0204
      6 C          -4.8795  -17.0379   24.2657 C.ar    1  UNL1        0.0924
      7 C          -5.9705  -16.8946   23.2463 C.ar    1  UNL1        0.1598
      8 F          -5.9237  -17.6969   21.9798 F       1  UNL1       -0.2026
      9 C          -8.1994  -15.8056   22.4742 C.2     1  UNL1        0.2036
     10 O          -8.0565  -14.8151   21.3568 O.2     1  UNL1       -0.2863
     11 C          -8.9391  -20.2539   18.6719 C.3     1  UNL1        0.0307
     12 C          -9.6581  -19.6253   19.8286 C.2     1  UNL1        0.0074
     13 C         -10.9776  -20.1768   20.2808 C.2     1  UNL1        0.2278
     14 N         -11.6965  -19.5481   21.4375 N.2     1  UNL1       -0.0314
     15 C         -11.0959  -18.3680   22.1420 C.2     1  UNL1        0.3720
     16 N         -11.5685  -17.5452   23.3038 N.2     1  UNL1       -0.0307
     17 C         -10.5410  -16.4852   23.5696 C.2     1  UNL1        0.2390
     18 C          -9.4333  -16.6528   22.5722 C.2     1  UNL1        0.0896
     19 C          -9.7763  -17.8165   21.6899 C.2     1  UNL1        0.0771
     20 C          -9.0574  -18.4451   20.5332 C.3     1  UNL1        0.0602
     21 N          -3.7416  -17.9835   24.0186 N.pl3   1  UNL1       -0.2128
     22 H          -3.4454  -18.5942   24.7317 H       1  UNL1        0.1738
     23 S          -3.0552  -17.9986   22.6850 S.O2    1  UNL1        0.0737
     24 O          -3.4285  -19.4407   22.5091 O.2     1  UNL1       -0.1499
     25 O          -2.6818  -16.5565   22.8608 O.2     1  UNL1       -0.1499
     26 C          -2.3687  -18.0137   21.3513 C.ar    1  UNL1        0.1274
     27 C          -3.0815  -18.5536   20.1470 C.ar    1  UNL1        0.0203
     28 C          -2.3951  -18.5687   18.8134 C.ar    1  UNL1        0.0037
     29 C          -0.9958  -18.0439   18.6840 C.ar    1  UNL1        0.0297
     30 C          -0.2830  -17.5040   19.8884 C.ar    1  UNL1        0.1415
     31 F           1.1163  -16.9793   19.7590 F       1  UNL1       -0.2041
     32 C          -0.9694  -17.4889   21.2220 C.ar    1  UNL1        0.0498
@<TRIPOS>BOND
     1    11    12    1
     2    12    13    2
     3    13    14    1
     4    14    15    2
     5    15    16    1
     6    16    17    2
     7    17    18    1
     8    18     9    1
     9     9    10    2
    10     9     1    1
    11     1     2   ar
    12     2     3    1
    13     2     4   ar
    14     4     5   ar
    15     5     6   ar
    16     6    21    1
    17    21    23    1
    18    23    24    2
    19    23    25    2
    20    23    26    1
    21    26    27   ar
    22    27    28   ar
    23    28    29   ar
    24    29    30   ar
    25    30    31    1
    26    30    32   ar
    27     6     7   ar
    28     7     8    1
    29    18    19    2
    30    19    20    1
    31    20    12    1
    32    19    15    1
    33     7     1   ar
    34    32    26   ar
    35    21    22    1
@<TRIPOS>MOLECULE
*****
 32 35 0 0 0
SMALL
GASTEIGER

@<TRIPOS>ATOM
      1 C          -8.9017  -18.7830   20.9351 C.ar    1  UNL1        0.0951
      2 C          -9.6332  -19.3229   19.7421 C.ar    1  UNL1        0.1454
      3 F         -11.0217  -18.8459   19.4347 F       1  UNL1       -0.2040
      4 C          -8.9762  -20.3397   18.8564 C.ar    1  UNL1        0.0312
      5 C          -7.5877  -20.8167   19.1638 C.ar    1  UNL1        0.0204
      6 C          -6.8562  -20.2768   20.3569 C.ar    1  UNL1        0.0924
      7 C          -7.5131  -19.2600   21.2426 C.ar    1  UNL1        0.1598
      8 F          -6.7816  -18.7202   22.4357 F       1  UNL1       -0.2026
      9 C          -9.5587  -17.7662   21.8208 C.2     1  UNL1        0.2036
     10 O         -10.9959  -17.9329   22.2163 O.2     1  UNL1       -0.2863
     11 C          -8.7212  -17.0786   27.6189 C.3     1  UNL1        0.0307
     12 C          -8.3719  -16.3828   26.3368 C.2     1  UNL1        0.0074
     13 C          -7.5707  -15.1150   26.3657 C.2     1  UNL1        0.2278
     14 N          -7.2213  -14.4192   25.0836 N.2     1  UNL1       -0.0314
     15 C          -7.6732  -14.9911   23.7726 C.2     1  UNL1        0.3720
     16 N          -7.4819  -14.5313   22.3577 N.2     1  UNL1       -0.0307
     17 C          -8.1650  -15.5149   21.4543 C.2     1  UNL1        0.2390
     18 C          -8.7784  -16.5826   22.3109 C.2     1  UNL1        0.0896
     19 C          -8.4744  -16.2588   23.7437 C.2     1  UNL1        0.0771
     20 C          -8.8238  -16.9546   25.0258 C.3     1  UNL1        0.0602
     21 N          -5.4677  -20.7538   20.6643 N.pl3   1  UNL1       -0.2128
     22 H          -5.3140  -21.6938   20.9138 H       1  UNL1        0.1738
     23 S          -4.3133  -19.7988   20.5917 S.O2    1  UNL1        0.0737
     24 O          -4.0903  -19.9560   22.0666 O.2     1  UNL1       -0.1499
     25 O          -4.5361  -19.6416   19.1167 O.2     1  UNL1       -0.1499
     26 C          -3.1588  -18.8438   20.5190 C.ar    1  UNL1        0.1274
     27 C          -2.0275  -19.1057   19.5696 C.ar    1  UNL1        0.0203
     28 C          -0.8730  -18.1507   19.4968 C.ar    1  UNL1        0.0037
     29 C          -0.8500  -16.9338   20.3735 C.ar    1  UNL1        0.0297
     30 C          -1.9813  -16.6719   21.3229 C.ar    1  UNL1        0.1415
     31 F          -1.9582  -15.4549   22.1996 F       1  UNL1       -0.2041
     32 C          -3.1357  -17.6268   21.3957 C.ar    1  UNL1        0.0498
@<TRIPOS>BOND
     1    11    12    1
     2    12    13    2
     3    13    14    1
     4    14    15    2
     5    15    16    1
     6    16    17    2
     7    17    18    1
     8    18     9    1
     9     9    10    2
    10     9     1    1
    11     1     2   ar
    12     2     3    1
    13     2     4   ar
    14     4     5   ar
    15     5     6   ar
    16     6    21    1
    17    21    23    1
    18    23    24    2
    19    23    25    2
    20    23    26    1
    21    26    27   ar
    22    27    28   ar
    23    28    29   ar
    24    29    30   ar
    25    30    31    1
    26    30    32   ar
    27     6     7   ar
    28     7     8    1
    29    18    19    2
    30    19    20    1
    31    20    12    1
    32    19    15    1
    33     7     1   ar
    34    32    26   ar
    35    21    22    1
