@<TRIPOS>MOLECULE
*****
 35 37 0 0 0
SMALL
GASTEIGER

@<TRIPOS>ATOM
      1 C         -11.7836  -17.6414   20.6076 C.3     1  UNL1        0.1459
      2 O         -13.1314  -17.7650   21.2542 O.3     1  UNL1       -0.3813
      3 H         -13.4112  -18.6937   21.2434 H       1  UNL1        0.2105
      4 C         -11.1248  -16.2983   20.4976 C.3     1  UNL1        0.1204
      5 C          -9.8893  -16.2692   22.7829 C.2     1  UNL1        0.2460
      6 O         -11.1041  -16.8464   23.4470 O.2     1  UNL1       -0.2701
      7 N          -9.8997  -15.9952   21.3082 N.am    1  UNL1       -0.2985
      8 H          -9.1023  -15.6164   20.8723 H       1  UNL1        0.1498
      9 C          -7.5344  -15.5585   25.8973 C.ar    1  UNL1        0.1516
     10 C          -8.7596  -15.8616   25.0867 C.ar    1  UNL1        0.0427
     11 C          -8.6640  -15.9661   23.5934 C.ar    1  UNL1        0.0565
     12 C          -7.3433  -15.7675   22.9107 C.ar    1  UNL1        0.0060
     13 C          -6.1181  -15.4644   23.7212 C.ar    1  UNL1        0.0173
     14 C          -6.2137  -15.3598   25.2145 C.ar    1  UNL1        0.0760
     15 N          -4.9884  -15.0567   26.0251 N.pl3   1  UNL1       -0.3546
     16 H          -4.1216  -14.9263   25.5770 H       1  UNL1        0.1424
     17 H          -5.0511  -14.9881   27.0052 H       1  UNL1        0.1424
     18 C          -8.7433  -14.6685   28.0177 C.3     1  UNL1        0.2525
     19 O          -7.6300  -15.4540   27.3906 O.3     1  UNL1       -0.4702
     20 C         -11.0945  -18.8609   20.0710 C.3     1  UNL1        0.1034
     21 N          -9.7085  -19.2030   20.5317 N.3     1  UNL1       -0.2704
     22 C          -8.5981  -19.3389   19.5324 C.3     1  UNL1        0.0759
     23 C          -7.2122  -19.6809   19.9930 C.3     1  UNL1        0.0609
     24 C          -6.9367  -19.8870   21.4531 C.3     1  UNL1        0.1687
     25 C          -8.0471  -19.7512   22.4524 C.3     1  UNL1        0.0609
     26 C          -9.4330  -19.4091   21.9917 C.3     1  UNL1        0.0759
     27 O          -5.5508  -20.2291   21.9138 O.3     1  UNL1       -0.4790
     28 C          -4.4238  -19.2673   21.6794 C.ar    1  UNL1        0.1393
     29 C          -3.9824  -18.3469   22.7786 C.ar    1  UNL1        0.0378
     30 C          -2.8554  -17.3851   22.5442 C.ar    1  UNL1        0.0154
     31 C          -2.1698  -17.3437   21.2107 C.ar    1  UNL1        0.0684
     32 CL         -1.0429  -16.3819   20.9763 Cl      1  UNL1       -0.0814
     33 C          -2.6112  -18.2641   20.1116 C.ar    1  UNL1        0.0712
     34 CL         -1.9256  -18.2227   18.7781 Cl      1  UNL1       -0.0813
     35 C          -3.7382  -19.2259   20.3459 C.ar    1  UNL1        0.0491
@<TRIPOS>BOND
     1    18    19    1
     2    19     9    1
     3     9    10   ar
     4    10    11   ar
     5    11     5    1
     6     5     6    2
     7     5     7   am
     8     7     4    1
     9     4     1    1
    10     1     2    1
    11     1    20    1
    12    20    21    1
    13    21    22    1
    14    22    23    1
    15    23    24    1
    16    24    27    1
    17    27    28    1
    18    28    29   ar
    19    29    30   ar
    20    30    31   ar
    21    31    32    1
    22    31    33   ar
    23    33    34    1
    24    33    35   ar
    25    24    25    1
    26    25    26    1
    27    11    12   ar
    28    12    13   ar
    29    13    14   ar
    30    14    15    1
    31    14     9   ar
    32    26    21    1
    33    35    28   ar
    34     7     8    1
    35     2     3    1
    36    15    16    1
    37    15    17    1
@<TRIPOS>MOLECULE
*****
 35 37 0 0 0
SMALL
GASTEIGER

@<TRIPOS>ATOM
      1 C         -11.4457  -17.4747   20.5263 C.3     1  UNL1        0.1459
      2 O         -11.7768  -17.2935   19.0746 O.3     1  UNL1       -0.3813
      3 H         -11.6953  -18.1442   18.6158 H       1  UNL1        0.2105
      4 C         -11.4973  -16.3014   21.4595 C.3     1  UNL1        0.1204
      5 C          -9.9300  -16.4866   23.5233 C.2     1  UNL1        0.2460
      6 O         -10.8328  -17.5278   24.1155 O.2     1  UNL1       -0.2701
      7 N         -10.2622  -15.8734   22.1953 N.am    1  UNL1       -0.2985
      8 H          -9.6697  -15.1900   21.8066 H       1  UNL1        0.1498
      9 C          -6.2096  -15.3020   24.2339 C.ar    1  UNL1        0.1516
     10 C          -7.4446  -15.7300   23.4982 C.ar    1  UNL1        0.0427
     11 C          -8.6949  -16.0586   24.2591 C.ar    1  UNL1        0.0565
     12 C          -8.7101  -15.9591   25.7557 C.ar    1  UNL1        0.0060
     13 C          -7.4750  -15.5310   26.4914 C.ar    1  UNL1        0.0173
     14 C          -6.2247  -15.2025   25.7305 C.ar    1  UNL1        0.0760
     15 N          -4.9896  -14.7744   26.4663 N.pl3   1  UNL1       -0.3546
     16 H          -4.9996  -14.7092   27.4486 H       1  UNL1        0.1424
     17 H          -4.1690  -14.5588   25.9669 H       1  UNL1        0.1424
     18 C          -3.9900  -16.0615   23.1174 C.3     1  UNL1        0.2525
     19 O          -4.9593  -14.9734   23.4730 O.3     1  UNL1       -0.4702
     20 C         -11.0629  -18.8291   21.0450 C.3     1  UNL1        0.1034
     21 N          -9.6467  -19.3075   20.9195 N.3     1  UNL1       -0.2704
     22 C          -8.8076  -19.4976   22.1483 C.3     1  UNL1        0.0759
     23 C          -7.3915  -19.9760   22.0229 C.3     1  UNL1        0.0609
     24 C          -6.8145  -20.2643   20.6686 C.3     1  UNL1        0.1687
     25 C          -7.6536  -20.0743   19.4399 C.3     1  UNL1        0.0609
     26 C          -9.0697  -19.5959   19.5654 C.3     1  UNL1        0.0759
     27 O          -5.3984  -20.7427   20.5431 O.3     1  UNL1       -0.4790
     28 C          -4.2711  -19.7531   20.5265 C.ar    1  UNL1        0.1393
     29 C          -3.3083  -19.6937   21.6751 C.ar    1  UNL1        0.0378
     30 C          -2.1811  -18.7042   21.6585 C.ar    1  UNL1        0.0154
     31 C          -2.0167  -17.7741   20.4932 C.ar    1  UNL1        0.0684
     32 CL         -0.8896  -16.7846   20.4765 Cl      1  UNL1       -0.0814
     33 C          -2.9796  -17.8335   19.3445 C.ar    1  UNL1        0.0712
     34 CL         -2.8153  -16.9035   18.1792 Cl      1  UNL1       -0.0813
     35 C          -4.1068  -18.8231   19.3612 C.ar    1  UNL1        0.0491
@<TRIPOS>BOND
     1    18    19    1
     2    19     9    1
     3     9    10   ar
     4    10    11   ar
     5    11     5    1
     6     5     6    2
     7     5     7   am
     8     7     4    1
     9     4     1    1
    10     1     2    1
    11     1    20    1
    12    20    21    1
    13    21    22    1
    14    22    23    1
    15    23    24    1
    16    24    27    1
    17    27    28    1
    18    28    29   ar
    19    29    30   ar
    20    30    31   ar
    21    31    32    1
    22    31    33   ar
    23    33    34    1
    24    33    35   ar
    25    24    25    1
    26    25    26    1
    27    11    12   ar
    28    12    13   ar
    29    13    14   ar
    30    14    15    1
    31    14     9   ar
    32    26    21    1
    33    35    28   ar
    34     7     8    1
    35     2     3    1
    36    15    16    1
    37    15    17    1
@<TRIPOS>MOLECULE
*****
 35 37 0 0 0
SMALL
GASTEIGER

@<TRIPOS>ATOM
      1 C          -9.7336   -6.6749   18.9809 C.3     1  UNL1        0.1459
      2 O          -8.7270   -7.4201   19.8063 O.3     1  UNL1       -0.3813
      3 H          -8.1286   -6.7881   20.2347 H       1  UNL1        0.2105
      4 C         -10.7786   -7.4282   18.2124 C.3     1  UNL1        0.1204
      5 C         -13.3600   -7.1832   18.0491 C.2     1  UNL1        0.2460
      6 O         -13.2132   -6.5321   16.7058 O.2     1  UNL1       -0.2701
      7 N         -12.1427   -7.6312   18.8024 N.am    1  UNL1       -0.2985
      8 H         -12.2390   -8.0586   19.6841 H       1  UNL1        0.1498
      9 C         -16.5880   -8.9770   19.5024 C.ar    1  UNL1        0.1516
     10 C         -15.2240   -8.7739   18.9124 C.ar    1  UNL1        0.0427
     11 C         -14.7240   -7.3863   18.6392 C.ar    1  UNL1        0.0565
     12 C         -15.5880   -6.2018   18.9561 C.ar    1  UNL1        0.0060
     13 C         -16.9520   -6.4049   19.5462 C.ar    1  UNL1        0.0173
     14 C         -17.4520   -7.7925   19.8193 C.ar    1  UNL1        0.0760
     15 N         -18.8161   -7.9956   20.4094 N.pl3   1  UNL1       -0.3546
     16 H         -19.3832   -7.2182   20.6174 H       1  UNL1        0.1424
     17 H         -19.1443   -8.9063   20.5887 H       1  UNL1        0.1424
     18 C         -17.0263  -11.4091   18.7009 C.3     1  UNL1        0.2525
     19 O         -17.0880  -10.3646   19.7756 O.3     1  UNL1       -0.4702
     20 C          -9.6952   -5.1765   18.9239 C.3     1  UNL1        0.1034
     21 N         -10.9075   -4.4115   18.4819 N.3     1  UNL1       -0.2704
     22 C         -12.0226   -4.1486   19.4502 C.3     1  UNL1        0.0759
     23 C         -13.2348   -3.3836   19.0083 C.3     1  UNL1        0.0609
     24 C         -13.3320   -2.8815   17.5981 C.3     1  UNL1        0.1687
     25 C         -12.2169   -3.1445   16.6299 C.3     1  UNL1        0.0609
     26 C         -11.0047   -3.9095   17.0718 C.3     1  UNL1        0.0759
     27 O         -14.5442   -2.1166   17.1562 O.3     1  UNL1       -0.4790
     28 C         -15.3468   -1.3394   18.1573 C.ar    1  UNL1        0.1393
     29 C         -14.9092    0.0365   18.5637 C.ar    1  UNL1        0.0378
     30 C         -15.7117    0.8136   19.5648 C.ar    1  UNL1        0.0154
     31 C         -16.9519    0.2148   20.1593 C.ar    1  UNL1        0.0684
     32 CL        -17.7544    0.9918   21.1603 Cl      1  UNL1       -0.0814
     33 C         -17.3894   -1.1612   19.7528 C.ar    1  UNL1        0.0712
     34 CL        -18.6295   -1.7601   20.3473 Cl      1  UNL1       -0.0813
     35 C         -16.5869   -1.9383   18.7518 C.ar    1  UNL1        0.0491
@<TRIPOS>BOND
     1    18    19    1
     2    19     9    1
     3     9    10   ar
     4    10    11   ar
     5    11     5    1
     6     5     6    2
     7     5     7   am
     8     7     4    1
     9     4     1    1
    10     1     2    1
    11     1    20    1
    12    20    21    1
    13    21    22    1
    14    22    23    1
    15    23    24    1
    16    24    27    1
    17    27    28    1
    18    28    29   ar
    19    29    30   ar
    20    30    31   ar
    21    31    32    1
    22    31    33   ar
    23    33    34    1
    24    33    35   ar
    25    24    25    1
    26    25    26    1
    27    11    12   ar
    28    12    13   ar
    29    13    14   ar
    30    14    15    1
    31    14     9   ar
    32    26    21    1
    33    35    28   ar
    34     7     8    1
    35     2     3    1
    36    15    16    1
    37    15    17    1
@<TRIPOS>MOLECULE
*****
 35 37 0 0 0
SMALL
GASTEIGER

@<TRIPOS>ATOM
      1 C         -10.4378   -3.9890   18.2108 C.3     1  UNL1        0.1459
      2 O          -9.5891   -3.5247   19.3571 O.3     1  UNL1       -0.3813
      3 H          -8.9991   -4.2429   19.6343 H       1  UNL1        0.2105
      4 C         -11.4404   -3.0587   17.5948 C.3     1  UNL1        0.1204
      5 C         -13.4810   -3.1446   19.2005 C.2     1  UNL1        0.2460
      6 O         -12.5892   -2.7890   20.3529 O.2     1  UNL1       -0.2701
      7 N         -12.9066   -3.2795   17.8214 N.am    1  UNL1       -0.2985
      8 H         -13.4920   -3.5129   17.0650 H       1  UNL1        0.1498
      9 C         -17.3278   -2.4125   19.8459 C.ar    1  UNL1        0.1516
     10 C         -15.8616   -2.1918   19.6193 C.ar    1  UNL1        0.0427
     11 C         -14.9473   -3.3654   19.4271 C.ar    1  UNL1        0.0565
     12 C         -15.4993   -4.7597   19.4616 C.ar    1  UNL1        0.0060
     13 C         -16.9656   -4.9804   19.6882 C.ar    1  UNL1        0.0173
     14 C         -17.8798   -3.8068   19.8803 C.ar    1  UNL1        0.0760
     15 N         -19.3461   -4.0276   20.1069 N.pl3   1  UNL1       -0.3546
     16 H         -19.7084   -4.9427   20.1295 H       1  UNL1        0.1424
     17 H         -19.9462   -3.2573   20.2330 H       1  UNL1        0.1424
     18 C         -18.8655   -0.5713   18.8484 C.3     1  UNL1        0.2525
     19 O         -18.2420   -1.2389   20.0380 O.3     1  UNL1       -0.4702
     20 C         -10.2840   -5.3837   17.6804 C.3     1  UNL1        0.1034
     21 N         -11.4776   -6.2877   17.5903 N.3     1  UNL1       -0.2704
     22 C         -11.9611   -6.7602   16.2512 C.3     1  UNL1        0.0759
     23 C         -13.1547   -7.6642   16.1610 C.3     1  UNL1        0.0609
     24 C         -13.8648   -8.0956   17.4099 C.3     1  UNL1        0.1687
     25 C         -13.3814   -7.6231   18.7488 C.3     1  UNL1        0.0609
     26 C         -12.1878   -6.7191   18.8390 C.3     1  UNL1        0.0759
     27 O         -15.0585   -8.9996   17.3197 O.3     1  UNL1       -0.4790
     28 C         -16.2951   -8.6901   18.1103 C.ar    1  UNL1        0.1393
     29 C         -16.3396   -8.9871   19.5799 C.ar    1  UNL1        0.0378
     30 C         -17.5762   -8.6776   20.3706 C.ar    1  UNL1        0.0154
     31 C         -18.7683   -8.0712   19.6915 C.ar    1  UNL1        0.0684
     32 CL        -20.0049   -7.7617   20.4821 Cl      1  UNL1       -0.0814
     33 C         -18.7238   -7.7742   18.2219 C.ar    1  UNL1        0.0712
     34 CL        -19.9159   -7.1678   17.5428 Cl      1  UNL1       -0.0813
     35 C         -17.4872   -8.0837   17.4313 C.ar    1  UNL1        0.0491
@<TRIPOS>BOND
     1    18    19    1
     2    19     9    1
     3     9    10   ar
     4    10    11   ar
     5    11     5    1
     6     5     6    2
     7     5     7   am
     8     7     4    1
     9     4     1    1
    10     1     2    1
    11     1    20    1
    12    20    21    1
    13    21    22    1
    14    22    23    1
    15    23    24    1
    16    24    27    1
    17    27    28    1
    18    28    29   ar
    19    29    30   ar
    20    30    31   ar
    21    31    32    1
    22    31    33   ar
    23    33    34    1
    24    33    35   ar
    25    24    25    1
    26    25    26    1
    27    11    12   ar
    28    12    13   ar
    29    13    14   ar
    30    14    15    1
    31    14     9   ar
    32    26    21    1
    33    35    28   ar
    34     7     8    1
    35     2     3    1
    36    15    16    1
    37    15    17    1
@<TRIPOS>MOLECULE
*****
 35 37 0 0 0
SMALL
GASTEIGER

@<TRIPOS>ATOM
      1 C           8.1626   -8.7998   27.1861 C.3     1  UNL1        0.1459
      2 O           7.4422   -8.3234   25.9598 O.3     1  UNL1       -0.3813
      3 H           7.6751   -7.3978   25.7871 H       1  UNL1        0.2105
      4 C           7.9714  -10.2070   27.6692 C.3     1  UNL1        0.1204
      5 C           6.2326  -12.1158   27.9568 C.2     1  UNL1        0.2460
      6 O           7.2095  -13.0936   27.3742 O.2     1  UNL1       -0.2701
      7 N           6.6135  -10.6725   28.1043 N.am    1  UNL1       -0.2985
      8 H           5.9723  -10.0308   28.4867 H       1  UNL1        0.1498
      9 C           2.9241  -14.2902   28.2329 C.ar    1  UNL1        0.1516
     10 C           4.2820  -13.8246   27.7978 C.ar    1  UNL1        0.0427
     11 C           4.8746  -12.5814   28.3920 C.ar    1  UNL1        0.0565
     12 C           4.1094  -11.8037   29.4213 C.ar    1  UNL1        0.0060
     13 C           2.7515  -12.2692   29.8564 C.ar    1  UNL1        0.0173
     14 C           2.1589  -13.5125   29.2622 C.ar    1  UNL1        0.0760
     15 N           0.8009  -13.9780   29.6973 N.pl3   1  UNL1       -0.3546
     16 H           0.2986  -13.4675   30.3729 H       1  UNL1        0.1424
     17 H           0.4119  -14.7940   29.3074 H       1  UNL1        0.1424
     18 C           1.8872  -16.6535   28.5320 C.3     1  UNL1        0.2525
     19 O           2.3315  -15.5334   27.6387 O.3     1  UNL1       -0.4702
     20 C           9.0744   -7.8691   27.9294 C.3     1  UNL1        0.1034
     21 N           8.5290   -6.9998   29.0234 N.3     1  UNL1       -0.2704
     22 C           7.3263   -6.1401   28.7691 C.3     1  UNL1        0.0759
     23 C           6.7809   -5.2708   29.8631 C.3     1  UNL1        0.0609
     24 C           7.4382   -5.2611   31.2114 C.3     1  UNL1        0.1687
     25 C           8.6408   -6.1207   31.4657 C.3     1  UNL1        0.0609
     26 C           9.1862   -6.9901   30.3717 C.3     1  UNL1        0.0759
     27 O           6.8928   -4.3918   32.3054 O.3     1  UNL1       -0.4790
     28 C           6.5646   -2.9546   32.0281 C.ar    1  UNL1        0.1393
     29 C           7.6147   -2.0394   31.4718 C.ar    1  UNL1        0.0378
     30 C           7.2865   -0.6022   31.1945 C.ar    1  UNL1        0.0154
     31 C           5.9082   -0.0803   31.4735 C.ar    1  UNL1        0.0684
     32 CL          5.5800    1.3568   31.1963 Cl      1  UNL1       -0.0814
     33 C           4.8581   -0.9956   32.0299 C.ar    1  UNL1        0.0712
     34 CL          3.4797   -0.4738   32.3090 Cl      1  UNL1       -0.0813
     35 C           5.1863   -2.4327   32.3072 C.ar    1  UNL1        0.0491
@<TRIPOS>BOND
     1    18    19    1
     2    19     9    1
     3     9    10   ar
     4    10    11   ar
     5    11     5    1
     6     5     6    2
     7     5     7   am
     8     7     4    1
     9     4     1    1
    10     1     2    1
    11     1    20    1
    12    20    21    1
    13    21    22    1
    14    22    23    1
    15    23    24    1
    16    24    27    1
    17    27    28    1
    18    28    29   ar
    19    29    30   ar
    20    30    31   ar
    21    31    32    1
    22    31    33   ar
    23    33    34    1
    24    33    35   ar
    25    24    25    1
    26    25    26    1
    27    11    12   ar
    28    12    13   ar
    29    13    14   ar
    30    14    15    1
    31    14     9   ar
    32    26    21    1
    33    35    28   ar
    34     7     8    1
    35     2     3    1
    36    15    16    1
    37    15    17    1
@<TRIPOS>MOLECULE
*****
 35 37 0 0 0
SMALL
GASTEIGER

@<TRIPOS>ATOM
      1 C           4.2541   -0.6611   17.2921 C.3     1  UNL1        0.1459
      2 O           3.7370   -1.4047   16.0965 O.3     1  UNL1       -0.3813
      3 H           4.4656   -1.8877   15.6761 H       1  UNL1        0.2105
      4 C           3.3194    0.1692   18.1210 C.3     1  UNL1        0.1204
      5 C           2.3922   -0.3275   20.4966 C.2     1  UNL1        0.2460
      6 O           1.1506   -0.9110   19.8901 O.2     1  UNL1       -0.2701
      7 N           3.4766    0.2126   19.6121 N.am    1  UNL1       -0.2985
      8 H           4.2915    0.5955   20.0102 H       1  UNL1        0.1498
      9 C           1.9433    0.7684   24.2844 C.ar    1  UNL1        0.1516
     10 C           1.7861    0.7249   22.7934 C.ar    1  UNL1        0.0427
     11 C           2.5495   -0.2841   21.9878 C.ar    1  UNL1        0.0565
     12 C           3.4701   -1.2498   22.6732 C.ar    1  UNL1        0.0060
     13 C           3.6273   -1.2063   24.1643 C.ar    1  UNL1        0.0173
     14 C           2.8639   -0.1972   24.9699 C.ar    1  UNL1        0.0760
     15 N           3.0212   -0.1538   26.4611 N.pl3   1  UNL1       -0.3546
     16 H           3.6254   -0.7876   26.9110 H       1  UNL1        0.1424
     17 H           2.5201    0.5084   26.9898 H       1  UNL1        0.1424
     18 C          -0.1515    1.4153   25.6785 C.3     1  UNL1        0.2525
     19 O           1.1799    1.7774   25.0900 O.3     1  UNL1       -0.4702
     20 C           5.7061   -0.7477   17.6589 C.3     1  UNL1        0.1034
     21 N           6.1714   -1.7832   18.6393 N.3     1  UNL1       -0.2704
     22 C           5.2167   -2.8277   19.1368 C.3     1  UNL1        0.0759
     23 C           5.6821   -3.8632   20.1172 C.3     1  UNL1        0.0609
     24 C           7.1022   -3.8541   20.6002 C.3     1  UNL1        0.1687
     25 C           8.0569   -2.8096   20.1027 C.3     1  UNL1        0.0609
     26 C           7.5915   -1.7741   19.1223 C.3     1  UNL1        0.0759
     27 O           7.5676   -4.8896   21.5806 O.3     1  UNL1       -0.4790
     28 C           7.3261   -4.6950   23.0482 C.ar    1  UNL1        0.1393
     29 C           6.7070   -3.4219   23.5441 C.ar    1  UNL1        0.0378
     30 C           6.4655   -3.2273   25.0117 C.ar    1  UNL1        0.0154
     31 C           6.8430   -4.3058   25.9834 C.ar    1  UNL1        0.0684
     32 CL          6.6015   -4.1113   27.4510 Cl      1  UNL1       -0.0814
     33 C           7.4621   -5.5790   25.4875 C.ar    1  UNL1        0.0712
     34 CL          7.8397   -6.6576   26.4591 Cl      1  UNL1       -0.0813
     35 C           7.7036   -5.7735   24.0199 C.ar    1  UNL1        0.0491
@<TRIPOS>BOND
     1    18    19    1
     2    19     9    1
     3     9    10   ar
     4    10    11   ar
     5    11     5    1
     6     5     6    2
     7     5     7   am
     8     7     4    1
     9     4     1    1
    10     1     2    1
    11     1    20    1
    12    20    21    1
    13    21    22    1
    14    22    23    1
    15    23    24    1
    16    24    27    1
    17    27    28    1
    18    28    29   ar
    19    29    30   ar
    20    30    31   ar
    21    31    32    1
    22    31    33   ar
    23    33    34    1
    24    33    35   ar
    25    24    25    1
    26    25    26    1
    27    11    12   ar
    28    12    13   ar
    29    13    14   ar
    30    14    15    1
    31    14     9   ar
    32    26    21    1
    33    35    28   ar
    34     7     8    1
    35     2     3    1
    36    15    16    1
    37    15    17    1
@<TRIPOS>MOLECULE
*****
 35 37 0 0 0
SMALL
GASTEIGER

@<TRIPOS>ATOM
      1 C          -9.9304   -4.2292   16.4760 C.3     1  UNL1        0.1459
      2 O          -8.4863   -3.8986   16.7109 O.3     1  UNL1       -0.3813
      3 H          -8.0207   -4.6891   17.0257 H       1  UNL1        0.2105
      4 C         -10.8717   -3.1703   15.9833 C.3     1  UNL1        0.1204
      5 C         -12.1493   -1.5415   17.5533 C.2     1  UNL1        0.2460
      6 O         -10.9796   -0.6027   17.5311 O.2     1  UNL1       -0.2701
      7 N         -12.0953   -2.8253   16.7794 N.am    1  UNL1       -0.2985
      8 H         -12.8631   -3.4414   16.7939 H       1  UNL1        0.1498
      9 C         -15.2331    0.4985   18.9951 C.ar    1  UNL1        0.1516
     10 C         -14.0094    0.1535   18.1991 C.ar    1  UNL1        0.0427
     11 C         -13.3729   -1.1965   18.3493 C.ar    1  UNL1        0.0565
     12 C         -13.9601   -2.2013   19.2956 C.ar    1  UNL1        0.0060
     13 C         -15.1837   -1.8563   20.0916 C.ar    1  UNL1        0.0173
     14 C         -15.8202   -0.5064   19.9413 C.ar    1  UNL1        0.0760
     15 N         -17.0439   -0.1614   20.7374 N.pl3   1  UNL1       -0.3546
     16 H         -17.4292   -0.8209   21.3585 H       1  UNL1        0.1424
     17 H         -17.4616    0.7246   20.6388 H       1  UNL1        0.1424
     18 C         -15.5901    2.9255   19.8507 C.3     1  UNL1        0.2525
     19 O         -15.8696    1.8484   18.8448 O.3     1  UNL1       -0.4702
     20 C         -10.4333   -5.6188   16.7336 C.3     1  UNL1        0.1034
     21 N         -11.7149   -5.8253   17.4850 N.3     1  UNL1       -0.2704
     22 C         -11.7597   -5.6005   18.9675 C.3     1  UNL1        0.0759
     23 C         -13.0414   -5.8070   19.7189 C.3     1  UNL1        0.0609
     24 C         -14.2783   -6.2382   18.9880 C.3     1  UNL1        0.1687
     25 C         -14.2334   -6.4629   17.5056 C.3     1  UNL1        0.0609
     26 C         -12.9518   -6.2565   16.7541 C.3     1  UNL1        0.0759
     27 O         -15.5599   -6.4447   19.7394 O.3     1  UNL1       -0.4790
     28 C         -16.5508   -7.4665   19.2658 C.ar    1  UNL1        0.1393
     29 C         -17.8676   -7.0272   18.6975 C.ar    1  UNL1        0.0378
     30 C         -18.8584   -8.0490   18.2238 C.ar    1  UNL1        0.0154
     31 C         -18.5324   -9.5101   18.3186 C.ar    1  UNL1        0.0684
     32 CL        -19.5231  -10.5319   17.8450 Cl      1  UNL1       -0.0814
     33 C         -17.2155   -9.9494   18.8869 C.ar    1  UNL1        0.0712
     34 CL        -16.8894  -11.4104   18.9817 Cl      1  UNL1       -0.0813
     35 C         -16.2247   -8.9276   19.3605 C.ar    1  UNL1        0.0491
@<TRIPOS>BOND
     1    18    19    1
     2    19     9    1
     3     9    10   ar
     4    10    11   ar
     5    11     5    1
     6     5     6    2
     7     5     7   am
     8     7     4    1
     9     4     1    1
    10     1     2    1
    11     1    20    1
    12    20    21    1
    13    21    22    1
    14    22    23    1
    15    23    24    1
    16    24    27    1
    17    27    28    1
    18    28    29   ar
    19    29    30   ar
    20    30    31   ar
    21    31    32    1
    22    31    33   ar
    23    33    34    1
    24    33    35   ar
    25    24    25    1
    26    25    26    1
    27    11    12   ar
    28    12    13   ar
    29    13    14   ar
    30    14    15    1
    31    14     9   ar
    32    26    21    1
    33    35    28   ar
    34     7     8    1
    35     2     3    1
    36    15    16    1
    37    15    17    1
@<TRIPOS>MOLECULE
*****
 35 37 0 0 0
SMALL
GASTEIGER

@<TRIPOS>ATOM
      1 C           7.8780   -4.3368   21.9017 C.3     1  UNL1        0.1459
      2 O           8.4052   -5.5848   21.2577 O.3     1  UNL1       -0.3813
      3 H           8.7978   -5.3642   20.3986 H       1  UNL1        0.2105
      4 C           7.2181   -4.4083   23.2469 C.3     1  UNL1        0.1204
      5 C           4.9948   -3.0681   23.3508 C.2     1  UNL1        0.2460
      6 O           4.3511   -4.0647   22.4329 O.2     1  UNL1       -0.2701
      7 N           6.4283   -3.2399   23.7578 N.am    1  UNL1       -0.2985
      8 H           6.8507   -2.5858   24.3602 H       1  UNL1        0.1498
      9 C           3.4662   -0.3703   25.8277 C.ar    1  UNL1        0.1516
     10 C           4.2560   -1.5386   25.3167 C.ar    1  UNL1        0.0427
     11 C           4.2049   -1.8997   23.8617 C.ar    1  UNL1        0.0565
     12 C           3.3641   -1.0924   22.9177 C.ar    1  UNL1        0.0060
     13 C           2.5743    0.0760   23.4287 C.ar    1  UNL1        0.0173
     14 C           2.6254    0.4370   24.8837 C.ar    1  UNL1        0.0760
     15 N           1.8355    1.6055   25.3946 N.pl3   1  UNL1       -0.3546
     16 H           1.2837    2.1353   24.7750 H       1  UNL1        0.1424
     17 H           1.8690    1.8425   26.3496 H       1  UNL1        0.1424
     18 C           2.5983   -0.6859   28.2561 C.3     1  UNL1        0.2525
     19 O           3.5172   -0.0092   27.2827 O.3     1  UNL1       -0.4702
     20 C           8.0107   -3.0174   21.2005 C.3     1  UNL1        0.1034
     21 N           6.8540   -2.4609   20.4243 N.3     1  UNL1       -0.2704
     22 C           6.4847   -1.0137   20.5629 C.3     1  UNL1        0.0759
     23 C           5.3281   -0.4572   19.7867 C.3     1  UNL1        0.0609
     24 C           4.5407   -1.3480   18.8719 C.3     1  UNL1        0.1687
     25 C           4.9101   -2.7951   18.7334 C.3     1  UNL1        0.0609
     26 C           6.0667   -3.3516   19.5096 C.3     1  UNL1        0.0759
     27 O           3.3841   -0.7915   18.0957 O.3     1  UNL1       -0.4790
     28 C           2.3371    0.0260   18.7926 C.ar    1  UNL1        0.1393
     29 C           1.4103   -0.6239   19.7769 C.ar    1  UNL1        0.0378
     30 C           0.3633    0.1936   20.4738 C.ar    1  UNL1        0.0154
     31 C           0.2431    1.6609   20.1864 C.ar    1  UNL1        0.0684
     32 CL         -0.8038    2.4784   20.8832 Cl      1  UNL1       -0.0814
     33 C           1.1699    2.3107   19.2020 C.ar    1  UNL1        0.0712
     34 CL          1.0497    3.7780   18.9146 Cl      1  UNL1       -0.0813
     35 C           2.2169    1.4933   18.5052 C.ar    1  UNL1        0.0491
@<TRIPOS>BOND
     1    18    19    1
     2    19     9    1
     3     9    10   ar
     4    10    11   ar
     5    11     5    1
     6     5     6    2
     7     5     7   am
     8     7     4    1
     9     4     1    1
    10     1     2    1
    11     1    20    1
    12    20    21    1
    13    21    22    1
    14    22    23    1
    15    23    24    1
    16    24    27    1
    17    27    28    1
    18    28    29   ar
    19    29    30   ar
    20    30    31   ar
    21    31    32    1
    22    31    33   ar
    23    33    34    1
    24    33    35   ar
    25    24    25    1
    26    25    26    1
    27    11    12   ar
    28    12    13   ar
    29    13    14   ar
    30    14    15    1
    31    14     9   ar
    32    26    21    1
    33    35    28   ar
    34     7     8    1
    35     2     3    1
    36    15    16    1
    37    15    17    1
@<TRIPOS>MOLECULE
*****
 35 37 0 0 0
SMALL
GASTEIGER

@<TRIPOS>ATOM
      1 C         -10.3614   -3.6639   18.0780 C.3     1  UNL1        0.1459
      2 O          -9.5487   -3.5295   19.3315 O.3     1  UNL1       -0.3813
      3 H          -9.0171   -4.3307   19.4597 H       1  UNL1        0.2105
      4 C         -11.2740   -2.5519   17.6530 C.3     1  UNL1        0.1204
      5 C         -13.3069   -1.1813   18.5124 C.2     1  UNL1        0.2460
      6 O         -12.5223    0.0863   18.3468 O.2     1  UNL1       -0.2701
      7 N         -12.6827   -2.5004   18.1655 N.am    1  UNL1       -0.2985
      8 H         -13.1977   -3.3324   18.2743 H       1  UNL1        0.1498
      9 C         -16.7633    0.2438   19.8437 C.ar    1  UNL1        0.1516
     10 C         -15.3546    0.1923   19.3312 C.ar    1  UNL1        0.0427
     11 C         -14.7157   -1.1299   19.0250 C.ar    1  UNL1        0.0565
     12 C         -15.4856   -2.4005   19.2313 C.ar    1  UNL1        0.0060
     13 C         -16.8943   -2.3491   19.7438 C.ar    1  UNL1        0.0173
     14 C         -17.5332   -1.0269   20.0500 C.ar    1  UNL1        0.0760
     15 N         -18.9420   -0.9755   20.5626 N.pl3   1  UNL1       -0.3546
     16 H         -19.4473   -1.8095   20.6980 H       1  UNL1        0.1424
     17 H         -19.3613   -0.1077   20.7636 H       1  UNL1        0.1424
     18 C         -16.5556    2.7986   20.2675 C.3     1  UNL1        0.2525
     19 O         -17.4022    1.5659   20.1500 O.3     1  UNL1       -0.4702
     20 C         -10.2615   -4.9104   17.2494 C.3     1  UNL1        0.1034
     21 N         -11.3841   -5.9053   17.2531 N.3     1  UNL1       -0.2704
     22 C         -11.7627   -6.6042   18.5253 C.3     1  UNL1        0.0759
     23 C         -12.8852   -7.5991   18.5289 C.3     1  UNL1        0.0609
     24 C         -13.6292   -7.8951   17.2604 C.3     1  UNL1        0.1687
     25 C         -13.2506   -7.1962   15.9884 C.3     1  UNL1        0.0609
     26 C         -12.1281   -6.2013   15.9847 C.3     1  UNL1        0.0759
     27 O         -14.7518   -8.8900   17.2641 O.3     1  UNL1       -0.4790
     28 C         -15.9487   -8.6671   18.1404 C.ar    1  UNL1        0.1393
     29 C         -16.6432   -9.8363   18.7731 C.ar    1  UNL1        0.0378
     30 C         -17.8401   -9.6134   19.6494 C.ar    1  UNL1        0.0154
     31 C         -18.3424   -8.2211   19.8929 C.ar    1  UNL1        0.0684
     32 CL        -19.5393   -7.9981   20.7691 Cl      1  UNL1       -0.0814
     33 C         -17.6478   -7.0518   19.2601 C.ar    1  UNL1        0.0712
     34 CL        -18.1502   -5.6596   19.5035 Cl      1  UNL1       -0.0813
     35 C         -16.4510   -7.2748   18.3839 C.ar    1  UNL1        0.0491
@<TRIPOS>BOND
     1    18    19    1
     2    19     9    1
     3     9    10   ar
     4    10    11   ar
     5    11     5    1
     6     5     6    2
     7     5     7   am
     8     7     4    1
     9     4     1    1
    10     1     2    1
    11     1    20    1
    12    20    21    1
    13    21    22    1
    14    22    23    1
    15    23    24    1
    16    24    27    1
    17    27    28    1
    18    28    29   ar
    19    29    30   ar
    20    30    31   ar
    21    31    32    1
    22    31    33   ar
    23    33    34    1
    24    33    35   ar
    25    24    25    1
    26    25    26    1
    27    11    12   ar
    28    12    13   ar
    29    13    14   ar
    30    14    15    1
    31    14     9   ar
    32    26    21    1
    33    35    28   ar
    34     7     8    1
    35     2     3    1
    36    15    16    1
    37    15    17    1
