@<TRIPOS>MOLECULE
*****
 41 47 0 0 0
SMALL
GASTEIGER

@<TRIPOS>ATOM
      1 C           5.2489   -2.5130   18.6280 C.3     1  UNL1        0.0700
      2 C           6.6359   -1.9600   18.7715 C.3     1  UNL1        0.0193
      3 C           7.5050   -2.4013   19.9115 C.3     1  UNL1        0.0287
      4 C           6.9872   -3.3957   20.9082 C.3     1  UNL1        0.0955
      5 C           5.6003   -3.9487   20.7647 C.3     1  UNL1        0.0287
      6 C           4.7311   -3.5074   19.6246 C.3     1  UNL1        0.0193
      7 O           6.4740   -3.1839   20.3001 O.3     1  UNL1       -0.3571
      8 C           5.6881   -2.7848   19.2692 C.3     1  UNL1        0.1562
      9 N           4.3797   -2.0716   17.4879 N.3     1  UNL1       -0.2926
     10 H           4.8933   -2.2748   16.6304 H       1  UNL1        0.1236
     11 C           3.9313   -0.6432   17.3960 C.3     1  UNL1        0.1152
     12 O          -1.3399    4.8130   19.1830 O.2     1  UNL1       -0.2707
     13 C          -0.6920    3.4903   19.4669 C.2     1  UNL1        0.2718
     14 C          -1.1533    2.6636   20.6304 C.3     1  UNL1        0.2898
     15 O          -0.5054    1.3409   20.9144 O.3     1  UNL1       -0.4628
     16 C           0.6038    0.8448   20.0348 C.ar    1  UNL1        0.1708
     17 C           1.2517   -0.4779   20.3187 C.ar    1  UNL1        0.0411
     18 C           2.3609   -0.9739   19.4390 C.ar    1  UNL1        0.0193
     19 C           2.8221   -0.1472   18.2756 C.ar    1  UNL1        0.0765
     20 N           2.1742    1.1756   17.9917 N.ar    1  UNL1       -0.2304
     21 C           1.0650    1.6716   18.8713 C.ar    1  UNL1        0.1682
     22 N           0.4172    2.9943   18.5873 N.am    1  UNL1       -0.2639
     23 H           0.7199    3.5369   17.8237 H       1  UNL1        0.1565
     24 C           7.8564   -3.8370   22.0482 C.3     1  UNL1        0.0604
     25 C           7.3777   -3.6793   23.4610 C.3     1  UNL1        0.1335
     26 O           6.9401   -2.3224   22.9948 O.3     1  UNL1       -0.3806
     27 C           6.8075   -3.2379   24.7764 C.3     1  UNL1        0.1402
     28 N           6.9928   -4.3550   25.7602 N.ar    1  UNL1       -0.2914
     29 C           6.7474   -4.7611   27.1902 C.ar    1  UNL1        0.2620
     30 O           6.0636   -3.7199   28.0258 O.2     1  UNL1       -0.2669
     31 C           7.1275   -6.0791   27.7972 C.ar    1  UNL1        0.0737
     32 C           7.8113   -7.1204   26.9617 C.ar    1  UNL1        0.0814
     33 CL          8.1913   -8.4384   27.5686 Cl      1  UNL1       -0.0805
     34 C           8.1150   -6.8437   25.5190 C.ar    1  UNL1        0.1077
     35 N           8.7905   -7.7830   24.5643 N.ar    1  UNL1       -0.2392
     36 C           9.0284   -7.3654   23.1434 C.ar    1  UNL1        0.1282
     37 C           8.5908   -6.0085   22.6772 C.ar    1  UNL1        0.1588
     38 F           8.8287   -5.5909   21.2562 F       1  UNL1       -0.2027
     39 C           7.9153   -5.0692   23.6319 C.ar    1  UNL1        0.0500
     40 C           7.6775   -5.4868   25.0528 C.ar    1  UNL1        0.0814
     41 H           6.5243   -1.8463   23.7306 H       1  UNL1        0.2108
@<TRIPOS>BOND
     1    12    13    2
     2    13    14    1
     3    14    15    1
     4    15    16    1
     5    16    17   ar
     6    17    18   ar
     7    18    19   ar
     8    19    11    1
     9    11     9    1
    10     9     1    1
    11     1     2    1
    12     2     3    1
    13     3     4    1
    14     4    24    1
    15    24    25    1
    16    25    26    1
    17    25    27    1
    18    27    28    1
    19    28    29   ar
    20    29    30    2
    21    29    31   ar
    22    31    32   ar
    23    32    33    1
    24    32    34   ar
    25    34    35   ar
    26    35    36   ar
    27    36    37   ar
    28    37    38    1
    29    37    39   ar
    30    39    40   ar
    31     4     5    1
    32     5     6    1
    33     4     7    1
    34     7     8    1
    35    19    20   ar
    36    20    21   ar
    37    21    22    1
    38    22    13   am
    39    21    16   ar
    40     6     1    1
    41     8     1    1
    42    39    25    1
    43    40    28   ar
    44    40    34   ar
    45     9    10    1
    46    26    41    1
    47    22    23    1
@<TRIPOS>MOLECULE
*****
 41 47 0 0 0
SMALL
GASTEIGER

@<TRIPOS>ATOM
      1 C           5.3123   -2.4409   18.2792 C.3     1  UNL1        0.0700
      2 C           4.7060   -3.4123   19.2480 C.3     1  UNL1        0.0193
      3 C           5.5132   -3.9187   20.4065 C.3     1  UNL1        0.0287
      4 C           6.9267   -3.4537   20.5962 C.3     1  UNL1        0.0955
      5 C           7.5330   -2.4822   19.6273 C.3     1  UNL1        0.0287
      6 C           6.7258   -1.9758   18.4688 C.3     1  UNL1        0.0193
      7 O           6.5237   -3.1483   19.9463 O.3     1  UNL1       -0.3571
      8 C           5.7938   -2.6904   18.8988 C.3     1  UNL1        0.1562
      9 N           4.5052   -1.9345   17.1207 N.3     1  UNL1       -0.2926
     10 H           5.1087   -1.9789   16.2996 H       1  UNL1        0.1236
     11 C           3.9257   -0.5515   17.1579 C.3     1  UNL1        0.1152
     12 O           3.4474    1.3240   24.7079 O.2     1  UNL1       -0.2707
     13 C           2.7923    1.1393   23.3713 C.2     1  UNL1        0.2718
     14 C           1.3225    1.3950   23.2146 C.3     1  UNL1        0.2898
     15 O           0.6674    1.2102   21.8780 O.3     1  UNL1       -0.4628
     16 C           1.4820    0.7698   20.6980 C.ar    1  UNL1        0.1708
     17 C           0.8268    0.5850   19.3612 C.ar    1  UNL1        0.0411
     18 C           1.6415    0.1446   18.1812 C.ar    1  UNL1        0.0193
     19 C           3.1111   -0.1111   18.3379 C.ar    1  UNL1        0.0765
     20 N           3.7663    0.0737   19.6746 N.ar    1  UNL1       -0.2304
     21 C           2.9517    0.5141   20.8546 C.ar    1  UNL1        0.1682
     22 N           3.6068    0.6989   22.1913 N.am    1  UNL1       -0.2639
     23 H           4.5715    0.5311   22.2941 H       1  UNL1        0.1565
     24 C           7.7338   -3.9601   21.7546 C.3     1  UNL1        0.0604
     25 C           7.2697   -3.7091   23.1588 C.3     1  UNL1        0.1335
     26 O           6.8078   -2.3944   22.6036 O.3     1  UNL1       -0.3806
     27 C           6.7091   -3.1832   24.4469 C.3     1  UNL1        0.1402
     28 N           6.9215   -4.2254   25.5046 N.ar    1  UNL1       -0.2914
     29 C           6.6988   -4.5325   26.9628 C.ar    1  UNL1        0.2620
     30 O           6.0105   -3.4438   27.7315 O.2     1  UNL1       -0.2669
     31 C           7.1043   -5.7992   27.6564 C.ar    1  UNL1        0.0737
     32 C           7.7926   -6.8879   26.8877 C.ar    1  UNL1        0.0814
     33 CL          8.1981   -8.1546   27.5813 Cl      1  UNL1       -0.0805
     34 C           8.0754   -6.7100   25.4253 C.ar    1  UNL1        0.1077
     35 N           8.7525   -7.7056   24.5307 N.ar    1  UNL1       -0.2392
     36 C           8.9676   -7.3865   23.0810 C.ar    1  UNL1        0.1282
     37 C           8.5057   -6.0718   22.5258 C.ar    1  UNL1        0.1588
     38 F           8.7210   -5.7527   21.0760 F       1  UNL1       -0.2027
     39 C           7.8286   -5.0762   23.4204 C.ar    1  UNL1        0.0500
     40 C           7.6135   -5.3953   24.8701 C.ar    1  UNL1        0.0814
     41 H           6.3941   -1.8729   23.3092 H       1  UNL1        0.2108
@<TRIPOS>BOND
     1    12    13    2
     2    13    14    1
     3    14    15    1
     4    15    16    1
     5    16    17   ar
     6    17    18   ar
     7    18    19   ar
     8    19    11    1
     9    11     9    1
    10     9     1    1
    11     1     2    1
    12     2     3    1
    13     3     4    1
    14     4    24    1
    15    24    25    1
    16    25    26    1
    17    25    27    1
    18    27    28    1
    19    28    29   ar
    20    29    30    2
    21    29    31   ar
    22    31    32   ar
    23    32    33    1
    24    32    34   ar
    25    34    35   ar
    26    35    36   ar
    27    36    37   ar
    28    37    38    1
    29    37    39   ar
    30    39    40   ar
    31     4     5    1
    32     5     6    1
    33     4     7    1
    34     7     8    1
    35    19    20   ar
    36    20    21   ar
    37    21    22    1
    38    22    13   am
    39    21    16   ar
    40     6     1    1
    41     8     1    1
    42    39    25    1
    43    40    28   ar
    44    40    34   ar
    45     9    10    1
    46    26    41    1
    47    22    23    1
@<TRIPOS>MOLECULE
*****
 41 47 0 0 0
SMALL
GASTEIGER

@<TRIPOS>ATOM
      1 C           4.9610   -3.0982   19.8509 C.3     1  UNL1        0.0700
      2 C           6.4495   -2.9131   19.8359 C.3     1  UNL1        0.0193
      3 C           7.2500   -3.1719   21.0777 C.3     1  UNL1        0.0287
      4 C           6.5620   -3.6159   22.3347 C.3     1  UNL1        0.0955
      5 C           5.0735   -3.8010   22.3496 C.3     1  UNL1        0.0287
      6 C           4.2730   -3.5422   21.1078 C.3     1  UNL1        0.0193
      7 O           6.0811   -3.4863   21.6789 O.3     1  UNL1       -0.3571
      8 C           5.3573   -3.2522   20.5560 C.3     1  UNL1        0.1562
      9 N           4.1605   -2.8394   18.6090 N.3     1  UNL1       -0.2926
     10 H           4.6523   -3.2965   17.8411 H       1  UNL1        0.1236
     11 C           3.8890   -1.4306   18.1718 C.3     1  UNL1        0.1152
     12 O          -0.7411    4.8388   18.2536 O.2     1  UNL1       -0.2707
     13 C          -0.3327    3.5178   18.8352 C.2     1  UNL1        0.2718
     14 C          -1.0593    2.9657   20.0257 C.3     1  UNL1        0.2898
     15 O          -0.6509    1.6447   20.6073 O.3     1  UNL1       -0.4628
     16 C           0.4840    0.8759   19.9984 C.ar    1  UNL1        0.1708
     17 C           0.8925   -0.4452   20.5800 C.ar    1  UNL1        0.0411
     18 C           2.0275   -1.2139   19.9710 C.ar    1  UNL1        0.0193
     19 C           2.7540   -0.6618   18.7806 C.ar    1  UNL1        0.0765
     20 N           2.3456    0.6593   18.1991 N.ar    1  UNL1       -0.2304
     21 C           1.2106    1.4281   18.8079 C.ar    1  UNL1        0.1682
     22 N           0.8022    2.7490   18.2263 N.am    1  UNL1       -0.2639
     23 H           1.2791    3.1114   17.4450 H       1  UNL1        0.1565
     24 C           7.3625   -3.8747   23.5765 C.3     1  UNL1        0.0604
     25 C           7.1375   -3.0390   24.8016 C.3     1  UNL1        0.1335
     26 O           7.0967   -1.9006   23.8257 O.3     1  UNL1       -0.3806
     27 C           6.9039   -1.9652   25.8227 C.3     1  UNL1        0.1402
     28 N           6.8474   -2.6147   27.1736 N.ar    1  UNL1       -0.2914
     29 C           6.6659   -2.3366   28.6433 C.ar    1  UNL1        0.2620
     30 O           6.4554   -0.8910   28.9833 O.2     1  UNL1       -0.2669
     31 C           6.6824   -3.3684   29.7320 C.ar    1  UNL1        0.0737
     32 C           6.8929   -4.8141   29.3921 C.ar    1  UNL1        0.0814
     33 CL          6.9094   -5.8459   30.4807 Cl      1  UNL1       -0.0805
     34 C           7.0869   -5.2281   27.9634 C.ar    1  UNL1        0.1077
     35 N           7.3069   -6.6287   27.4734 N.ar    1  UNL1       -0.2392
     36 C           7.4862   -6.8908   26.0075 C.ar    1  UNL1        0.1282
     37 C           7.4454   -5.7525   25.0315 C.ar    1  UNL1        0.1588
     38 F           7.6246   -6.0147   23.5655 F       1  UNL1       -0.2027
     39 C           7.2253   -4.3520   25.5215 C.ar    1  UNL1        0.0500
     40 C           7.0461   -4.0898   26.9874 C.ar    1  UNL1        0.0814
     41 H           6.9473   -1.0700   24.3038 H       1  UNL1        0.2108
@<TRIPOS>BOND
     1    12    13    2
     2    13    14    1
     3    14    15    1
     4    15    16    1
     5    16    17   ar
     6    17    18   ar
     7    18    19   ar
     8    19    11    1
     9    11     9    1
    10     9     1    1
    11     1     2    1
    12     2     3    1
    13     3     4    1
    14     4    24    1
    15    24    25    1
    16    25    26    1
    17    25    27    1
    18    27    28    1
    19    28    29   ar
    20    29    30    2
    21    29    31   ar
    22    31    32   ar
    23    32    33    1
    24    32    34   ar
    25    34    35   ar
    26    35    36   ar
    27    36    37   ar
    28    37    38    1
    29    37    39   ar
    30    39    40   ar
    31     4     5    1
    32     5     6    1
    33     4     7    1
    34     7     8    1
    35    19    20   ar
    36    20    21   ar
    37    21    22    1
    38    22    13   am
    39    21    16   ar
    40     6     1    1
    41     8     1    1
    42    39    25    1
    43    40    28   ar
    44    40    34   ar
    45     9    10    1
    46    26    41    1
    47    22    23    1
@<TRIPOS>MOLECULE
*****
 41 47 0 0 0
SMALL
GASTEIGER

@<TRIPOS>ATOM
      1 C           4.8441   -2.4369   18.8704 C.3     1  UNL1        0.0700
      2 C           3.9610   -2.9039   19.9894 C.3     1  UNL1        0.0193
      3 C           4.5127   -3.0269   21.3788 C.3     1  UNL1        0.0287
      4 C           5.9475   -2.6830   21.6493 C.3     1  UNL1        0.0955
      5 C           6.8306   -2.2160   20.5303 C.3     1  UNL1        0.0287
      6 C           6.2789   -2.0930   19.1409 C.3     1  UNL1        0.0193
      7 O           5.6903   -2.5998   20.8715 O.3     1  UNL1       -0.3571
      8 C           5.1913   -2.4886   19.6152 C.3     1  UNL1        0.1562
      9 N           4.2924   -2.3139   17.4810 N.3     1  UNL1       -0.2926
     10 H           4.9449   -2.7943   16.8615 H       1  UNL1        0.1236
     11 C           4.0504   -0.9578   16.8875 C.3     1  UNL1        0.1152
     12 O          -1.6386    2.5026   20.9385 O.2     1  UNL1       -0.2707
     13 C          -0.2179    2.4746   20.4582 C.2     1  UNL1        0.2718
     14 C           0.7273    3.5723   20.8479 C.3     1  UNL1        0.2898
     15 O           2.1481    3.5444   20.3676 O.3     1  UNL1       -0.4628
     16 C           2.6236    2.4188   19.4976 C.ar    1  UNL1        0.1708
     17 C           4.0444    2.3909   19.0172 C.ar    1  UNL1        0.0411
     18 C           4.5199    1.2653   18.1472 C.ar    1  UNL1        0.0193
     19 C           3.5748    0.1677   17.7575 C.ar    1  UNL1        0.0765
     20 N           2.1540    0.1957   18.2378 N.ar    1  UNL1       -0.2304
     21 C           1.6785    1.3212   19.1079 C.ar    1  UNL1        0.1682
     22 N           0.2577    1.3491   19.5882 N.am    1  UNL1       -0.2639
     23 H          -0.3626    0.6287   19.3324 H       1  UNL1        0.1565
     24 C           6.4993   -2.8060   23.0387 C.3     1  UNL1        0.0604
     25 C           7.0273   -4.1242   23.5220 C.3     1  UNL1        0.1335
     26 O           7.3395   -4.3521   22.0727 O.3     1  UNL1       -0.3806
     27 C           7.6206   -5.4900   23.7023 C.3     1  UNL1        0.1402
     28 N           7.5646   -5.8307   25.1620 N.ar    1  UNL1       -0.2914
     29 C           7.9037   -6.8987   26.1692 C.ar    1  UNL1        0.2620
     30 O           8.5433   -8.1244   25.5873 O.2     1  UNL1       -0.2669
     31 C           7.6521   -6.8131   27.6455 C.ar    1  UNL1        0.0737
     32 C           7.0125   -5.5875   28.2275 C.ar    1  UNL1        0.0814
     33 CL          6.7609   -5.5018   29.7038 Cl      1  UNL1       -0.0805
     34 C           6.6245   -4.4474   27.3332 C.ar    1  UNL1        0.1077
     35 N           5.9802   -3.1648   27.7689 N.ar    1  UNL1       -0.2392
     36 C           5.6481   -2.1102   26.7553 C.ar    1  UNL1        0.1282
     37 C           5.9603   -2.3381   25.3060 C.ar    1  UNL1        0.1588
     38 F           5.6282   -1.2834   24.2924 F       1  UNL1       -0.2027
     39 C           6.6046   -3.6207   24.8703 C.ar    1  UNL1        0.0500
     40 C           6.9367   -4.6753   25.8839 C.ar    1  UNL1        0.0814
     41 H           7.7505   -5.2239   21.9637 H       1  UNL1        0.2108
@<TRIPOS>BOND
     1    12    13    2
     2    13    14    1
     3    14    15    1
     4    15    16    1
     5    16    17   ar
     6    17    18   ar
     7    18    19   ar
     8    19    11    1
     9    11     9    1
    10     9     1    1
    11     1     2    1
    12     2     3    1
    13     3     4    1
    14     4    24    1
    15    24    25    1
    16    25    26    1
    17    25    27    1
    18    27    28    1
    19    28    29   ar
    20    29    30    2
    21    29    31   ar
    22    31    32   ar
    23    32    33    1
    24    32    34   ar
    25    34    35   ar
    26    35    36   ar
    27    36    37   ar
    28    37    38    1
    29    37    39   ar
    30    39    40   ar
    31     4     5    1
    32     5     6    1
    33     4     7    1
    34     7     8    1
    35    19    20   ar
    36    20    21   ar
    37    21    22    1
    38    22    13   am
    39    21    16   ar
    40     6     1    1
    41     8     1    1
    42    39    25    1
    43    40    28   ar
    44    40    34   ar
    45     9    10    1
    46    26    41    1
    47    22    23    1
@<TRIPOS>MOLECULE
*****
 41 47 0 0 0
SMALL
GASTEIGER

@<TRIPOS>ATOM
      1 C           4.7221   -3.0931   20.3387 C.3     1  UNL1        0.0700
      2 C           4.2994   -3.2751   21.7664 C.3     1  UNL1        0.0193
      3 C           5.3284   -3.5390   22.8254 C.3     1  UNL1        0.0287
      4 C           6.7801   -3.6209   22.4568 C.3     1  UNL1        0.0955
      5 C           7.2028   -3.4389   21.0291 C.3     1  UNL1        0.0287
      6 C           6.1739   -3.1750   19.9701 C.3     1  UNL1        0.0193
      7 O           6.2527   -3.4744   21.8416 O.3     1  UNL1       -0.3571
      8 C           5.3223   -3.2357   20.8841 C.3     1  UNL1        0.1562
      9 N           3.6931   -2.8292   19.2797 N.3     1  UNL1       -0.2926
     10 H           3.9119   -3.4451   18.4966 H       1  UNL1        0.1236
     11 C           3.5358   -1.4489   18.7142 C.3     1  UNL1        0.1152
     12 O          -0.9648    4.8394   17.7385 O.2     1  UNL1       -0.2707
     13 C          -0.5895    3.6203   18.5278 C.2     1  UNL1        0.2718
     14 C          -1.3392    3.2782   19.7812 C.3     1  UNL1        0.2898
     15 O          -0.9640    2.0591   20.5705 O.3     1  UNL1       -0.4628
     16 C           0.1610    1.1821   20.1064 C.ar    1  UNL1        0.1708
     17 C           0.5363   -0.0370   20.8957 C.ar    1  UNL1        0.0411
     18 C           1.6613   -0.9140   20.4316 C.ar    1  UNL1        0.0193
     19 C           2.4109   -0.5719   19.1783 C.ar    1  UNL1        0.0765
     20 N           2.0356    0.6472   18.3890 N.ar    1  UNL1       -0.2304
     21 C           0.9107    1.5242   18.8530 C.ar    1  UNL1        0.1682
     22 N           0.5354    2.7433   18.0637 N.am    1  UNL1       -0.2639
     23 H           1.0274    2.9678   17.2411 H       1  UNL1        0.1565
     24 C           7.8091   -3.8848   23.5158 C.3     1  UNL1        0.0604
     25 C           7.8501   -5.2156   24.2067 C.3     1  UNL1        0.1335
     26 O           7.7634   -5.7648   22.8136 O.3     1  UNL1       -0.3806
     27 C           7.8729   -6.6612   24.6063 C.3     1  UNL1        0.1402
     28 N           7.9652   -6.7273   26.1020 N.ar    1  UNL1       -0.2914
     29 C           8.0360   -7.6774   27.2692 C.ar    1  UNL1        0.2620
     30 O           8.0110   -9.1294   26.8940 O.2     1  UNL1       -0.2669
     31 C           8.1256   -7.2771   28.7121 C.ar    1  UNL1        0.0737
     32 C           8.1506   -5.8251   29.0874 C.ar    1  UNL1        0.0814
     33 CL          8.2402   -5.4247   30.5303 Cl      1  UNL1       -0.0805
     34 C           8.0860   -4.7732   28.0199 C.ar    1  UNL1        0.1077
     35 N           8.1016   -3.2898   28.2417 N.ar    1  UNL1       -0.2392
     36 C           8.0305   -2.3556   27.0703 C.ar    1  UNL1        0.1282
     37 C           7.9438   -2.9048   25.6772 C.ar    1  UNL1        0.1588
     38 F           7.8726   -1.9705   24.5058 F       1  UNL1       -0.2027
     39 C           7.9282   -4.3882   25.4554 C.ar    1  UNL1        0.0500
     40 C           7.9993   -5.3224   26.6268 C.ar    1  UNL1        0.0814
     41 H           7.7642   -6.7342   22.8475 H       1  UNL1        0.2108
@<TRIPOS>BOND
     1    12    13    2
     2    13    14    1
     3    14    15    1
     4    15    16    1
     5    16    17   ar
     6    17    18   ar
     7    18    19   ar
     8    19    11    1
     9    11     9    1
    10     9     1    1
    11     1     2    1
    12     2     3    1
    13     3     4    1
    14     4    24    1
    15    24    25    1
    16    25    26    1
    17    25    27    1
    18    27    28    1
    19    28    29   ar
    20    29    30    2
    21    29    31   ar
    22    31    32   ar
    23    32    33    1
    24    32    34   ar
    25    34    35   ar
    26    35    36   ar
    27    36    37   ar
    28    37    38    1
    29    37    39   ar
    30    39    40   ar
    31     4     5    1
    32     5     6    1
    33     4     7    1
    34     7     8    1
    35    19    20   ar
    36    20    21   ar
    37    21    22    1
    38    22    13   am
    39    21    16   ar
    40     6     1    1
    41     8     1    1
    42    39    25    1
    43    40    28   ar
    44    40    34   ar
    45     9    10    1
    46    26    41    1
    47    22    23    1
@<TRIPOS>MOLECULE
*****
 41 47 0 0 0
SMALL
GASTEIGER

@<TRIPOS>ATOM
      1 C           8.3715   -5.8315   28.2540 C.3     1  UNL1        0.0700
      2 C           9.2262   -4.8030   27.5746 C.3     1  UNL1        0.0193
      3 C           8.6084   -3.8297   26.6149 C.3     1  UNL1        0.0287
      4 C           7.1358   -3.8849   26.3346 C.3     1  UNL1        0.0955
      5 C           6.2810   -4.9134   27.0141 C.3     1  UNL1        0.0287
      6 C           6.8988   -5.8867   27.9738 C.3     1  UNL1        0.0193
      7 O           7.4291   -4.4392   26.8682 O.3     1  UNL1       -0.3571
      8 C           7.9878   -5.3193   27.7360 C.3     1  UNL1        0.1562
      9 N           8.9893   -6.8048   29.2137 N.3     1  UNL1       -0.2926
     10 H           8.6675   -7.7331   28.9396 H       1  UNL1        0.1236
     11 C           8.7305   -6.6739   30.6853 C.3     1  UNL1        0.1152
     12 O           3.5504   -1.5020   33.3626 O.2     1  UNL1       -0.2707
     13 C           4.9698   -1.8819   33.0611 C.2     1  UNL1        0.2718
     14 C           6.0819   -0.9178   33.3504 C.3     1  UNL1        0.2898
     15 O           7.5013   -1.2977   33.0488 O.3     1  UNL1       -0.4628
     16 C           7.8086   -2.6417   32.4580 C.ar    1  UNL1        0.1708
     17 C           9.2281   -3.0217   32.1564 C.ar    1  UNL1        0.0411
     18 C           9.5353   -4.3658   31.5655 C.ar    1  UNL1        0.0193
     19 C           8.4232   -5.3298   31.2762 C.ar    1  UNL1        0.0765
     20 N           7.0037   -4.9499   31.5778 N.ar    1  UNL1       -0.2304
     21 C           6.6965   -3.6058   32.1686 C.ar    1  UNL1        0.1682
     22 N           5.2771   -3.2259   32.4702 N.am    1  UNL1       -0.2639
     23 H           4.5471   -3.8587   32.2803 H       1  UNL1        0.1565
     24 C           6.5179   -2.9116   25.3749 C.3     1  UNL1        0.0604
     25 C           6.3268   -3.2946   23.9373 C.3     1  UNL1        0.1335
     26 O           7.5079   -4.1865   24.1815 O.3     1  UNL1       -0.3806
     27 C           6.3826   -3.8641   22.5507 C.3     1  UNL1        0.1402
     28 N           5.2760   -3.2440   21.7501 N.ar    1  UNL1       -0.2914
     29 C           4.6336   -3.2228   20.3874 C.ar    1  UNL1        0.2620
     30 O           5.2727   -4.1344   19.3822 O.2     1  UNL1       -0.2669
     31 C           3.4519   -2.3858   19.9961 C.ar    1  UNL1        0.0737
     32 C           2.8127   -1.4742   21.0012 C.ar    1  UNL1        0.0814
     33 CL          1.6310   -0.6372   20.6101 Cl      1  UNL1       -0.0805
     34 C           3.3552   -1.3995   22.3978 C.ar    1  UNL1        0.1077
     35 N           2.8236   -0.5389   23.5053 N.ar    1  UNL1       -0.2392
     36 C           3.4731   -0.5701   24.8570 C.ar    1  UNL1        0.1282
     37 C           4.6541   -1.4620   25.1012 C.ar    1  UNL1        0.1588
     38 F           5.3036   -1.4933   26.4530 F       1  UNL1       -0.2027
     39 C           5.1857   -2.3227   23.9937 C.ar    1  UNL1        0.0500
     40 C           4.5363   -2.2914   22.6420 C.ar    1  UNL1        0.0814
     41 H           7.7210   -4.6707   23.3684 H       1  UNL1        0.2108
@<TRIPOS>BOND
     1    12    13    2
     2    13    14    1
     3    14    15    1
     4    15    16    1
     5    16    17   ar
     6    17    18   ar
     7    18    19   ar
     8    19    11    1
     9    11     9    1
    10     9     1    1
    11     1     2    1
    12     2     3    1
    13     3     4    1
    14     4    24    1
    15    24    25    1
    16    25    26    1
    17    25    27    1
    18    27    28    1
    19    28    29   ar
    20    29    30    2
    21    29    31   ar
    22    31    32   ar
    23    32    33    1
    24    32    34   ar
    25    34    35   ar
    26    35    36   ar
    27    36    37   ar
    28    37    38    1
    29    37    39   ar
    30    39    40   ar
    31     4     5    1
    32     5     6    1
    33     4     7    1
    34     7     8    1
    35    19    20   ar
    36    20    21   ar
    37    21    22    1
    38    22    13   am
    39    21    16   ar
    40     6     1    1
    41     8     1    1
    42    39    25    1
    43    40    28   ar
    44    40    34   ar
    45     9    10    1
    46    26    41    1
    47    22    23    1
@<TRIPOS>MOLECULE
*****
 41 47 0 0 0
SMALL
GASTEIGER

@<TRIPOS>ATOM
      1 C           0.6740    1.2841   29.5511 C.3     1  UNL1        0.0700
      2 C           0.9782    2.7320   29.3038 C.3     1  UNL1        0.0193
      3 C           0.2371    3.4826   28.2374 C.3     1  UNL1        0.0287
      4 C          -0.8082    2.7853   27.4181 C.3     1  UNL1        0.0955
      5 C          -1.1124    1.3374   27.6653 C.3     1  UNL1        0.0287
      6 C          -0.3713    0.5868   28.7318 C.3     1  UNL1        0.0193
      7 O          -0.4284    2.3323   27.9913 O.3     1  UNL1       -0.3571
      8 C           0.2418    1.6537   28.9556 C.3     1  UNL1        0.1562
      9 N           1.4151    0.5335   30.6175 N.3     1  UNL1       -0.2926
     10 H           1.9587    1.2217   31.1383 H       1  UNL1        0.1236
     11 C           2.3597   -0.5688   30.2402 C.3     1  UNL1        0.1152
     12 O           4.9031   -2.7884   23.2149 O.2     1  UNL1       -0.2707
     13 C           4.9912   -1.8705   24.3980 C.2     1  UNL1        0.2718
     14 C           6.0151   -0.7746   24.4224 C.3     1  UNL1        0.2898
     15 O           6.1031    0.1433   25.6055 O.3     1  UNL1       -0.4628
     16 C           5.1673   -0.0348   26.7641 C.ar    1  UNL1        0.1708
     17 C           5.2553    0.8832   27.9473 C.ar    1  UNL1        0.0411
     18 C           4.3194    0.7051   29.1059 C.ar    1  UNL1        0.0193
     19 C           3.2956   -0.3908   29.0815 C.ar    1  UNL1        0.0765
     20 N           3.2075   -1.3087   27.8983 N.ar    1  UNL1       -0.2304
     21 C           4.1434   -1.1307   26.7397 C.ar    1  UNL1        0.1682
     22 N           4.0553   -2.0486   25.5566 N.am    1  UNL1       -0.2639
     23 H           3.3833   -2.7679   25.5406 H       1  UNL1        0.1565
     24 C          -1.5493    3.5359   26.3516 C.3     1  UNL1        0.0604
     25 C          -1.1109    3.4345   24.9207 C.3     1  UNL1        0.1335
     26 O           0.2659    3.3650   25.5118 O.3     1  UNL1       -0.3806
     27 C          -0.3847    3.3185   23.6133 C.3     1  UNL1        0.1402
     28 N          -1.4043    3.3375   22.5134 N.ar    1  UNL1       -0.2914
     29 C          -1.5716    3.2762   21.0172 C.ar    1  UNL1        0.2620
     30 O          -0.2887    3.1470   20.2509 O.2     1  UNL1       -0.2669
     31 C          -2.8797    3.3339   20.2854 C.ar    1  UNL1        0.0737
     32 C          -4.1627    3.4631   21.0517 C.ar    1  UNL1        0.0814
     33 CL         -5.4709    3.5208   20.3200 Cl      1  UNL1       -0.0805
     34 C          -4.1376    3.5347   22.5498 C.ar    1  UNL1        0.1077
     35 N          -5.3331    3.6641   23.4465 N.ar    1  UNL1       -0.2392
     36 C          -5.1518    3.7240   24.9342 C.ar    1  UNL1        0.1282
     37 C          -3.7749    3.6545   25.5253 C.ar    1  UNL1        0.1588
     38 F          -3.5936    3.7144   27.0132 F       1  UNL1       -0.2027
     39 C          -2.5794    3.5251   24.6287 C.ar    1  UNL1        0.0500
     40 C          -2.7608    3.4652   23.1410 C.ar    1  UNL1        0.0814
     41 H           0.9197    3.2834   24.7999 H       1  UNL1        0.2108
@<TRIPOS>BOND
     1    12    13    2
     2    13    14    1
     3    14    15    1
     4    15    16    1
     5    16    17   ar
     6    17    18   ar
     7    18    19   ar
     8    19    11    1
     9    11     9    1
    10     9     1    1
    11     1     2    1
    12     2     3    1
    13     3     4    1
    14     4    24    1
    15    24    25    1
    16    25    26    1
    17    25    27    1
    18    27    28    1
    19    28    29   ar
    20    29    30    2
    21    29    31   ar
    22    31    32   ar
    23    32    33    1
    24    32    34   ar
    25    34    35   ar
    26    35    36   ar
    27    36    37   ar
    28    37    38    1
    29    37    39   ar
    30    39    40   ar
    31     4     5    1
    32     5     6    1
    33     4     7    1
    34     7     8    1
    35    19    20   ar
    36    20    21   ar
    37    21    22    1
    38    22    13   am
    39    21    16   ar
    40     6     1    1
    41     8     1    1
    42    39    25    1
    43    40    28   ar
    44    40    34   ar
    45     9    10    1
    46    26    41    1
    47    22    23    1
@<TRIPOS>MOLECULE
*****
 41 47 0 0 0
SMALL
GASTEIGER

@<TRIPOS>ATOM
      1 C           3.4448    0.6460   18.1920 C.3     1  UNL1        0.0700
      2 C           3.8449    2.0783   18.3878 C.3     1  UNL1        0.0193
      3 C           2.7946    3.1280   18.6002 C.3     1  UNL1        0.0287
      4 C           1.3443    2.7454   18.6169 C.3     1  UNL1        0.0955
      5 C           0.9442    1.3130   18.4211 C.3     1  UNL1        0.0287
      6 C           1.9944    0.2633   18.2086 C.3     1  UNL1        0.0193
      7 O           1.8838    2.1350   18.4970 O.3     1  UNL1       -0.3571
      8 C           2.8335    1.1858   18.3049 C.3     1  UNL1        0.1562
      9 N           4.4950   -0.4037   17.9795 N.3     1  UNL1       -0.2926
     10 H           4.6595   -0.4565   16.9742 H       1  UNL1        0.1236
     11 C           4.2596   -1.8070   18.4540 C.3     1  UNL1        0.1152
     12 O           8.7712   -5.4155   23.6860 O.2     1  UNL1       -0.2707
     13 C           7.5653   -4.5833   23.3646 C.2     1  UNL1        0.2718
     14 C           6.6573   -4.1219   24.4658 C.3     1  UNL1        0.2898
     15 O           5.4514   -3.2898   24.1444 O.3     1  UNL1       -0.4628
     16 C           5.1535   -2.9191   22.7219 C.ar    1  UNL1        0.1708
     17 C           3.9475   -2.0869   22.4004 C.ar    1  UNL1        0.0411
     18 C           3.6496   -1.7163   20.9777 C.ar    1  UNL1        0.0193
     19 C           4.5575   -2.1777   19.8766 C.ar    1  UNL1        0.0765
     20 N           5.7635   -3.0099   20.1980 N.ar    1  UNL1       -0.2304
     21 C           6.0615   -3.3806   21.6206 C.ar    1  UNL1        0.1682
     22 N           7.2674   -4.2127   21.9420 N.am    1  UNL1       -0.2639
     23 H           7.8633   -4.5155   21.2193 H       1  UNL1        0.1565
     24 C           0.2941    3.7951   18.8293 C.3     1  UNL1        0.0604
     25 C          -0.6538    3.6843   19.9866 C.3     1  UNL1        0.1335
     26 O           0.6014    3.6190   20.8052 O.3     1  UNL1       -0.3806
     27 C          -1.3393    3.5598   21.3150 C.3     1  UNL1        0.1402
     28 N          -2.8200    3.5713   21.0755 N.ar    1  UNL1       -0.2914
     29 C          -4.1579    3.5000   21.7647 C.ar    1  UNL1        0.2620
     30 O          -4.0845    3.3659   23.2569 O.2     1  UNL1       -0.2669
     31 C          -5.4921    3.5526   21.0812 C.ar    1  UNL1        0.0737
     32 C          -5.5656    3.6866   19.5890 C.ar    1  UNL1        0.0814
     33 CL         -6.8997    3.7392   18.9054 Cl      1  UNL1       -0.0805
     34 C          -4.3048    3.7681   18.7803 C.ar    1  UNL1        0.1077
     35 N          -4.2213    3.9032   17.2888 N.ar    1  UNL1       -0.2392
     36 C          -2.8825    3.9730   16.6159 C.ar    1  UNL1        0.1282
     37 C          -1.6273    3.9078   17.4345 C.ar    1  UNL1        0.1588
     38 F          -0.2885    3.9776   16.7615 F       1  UNL1       -0.2027
     39 C          -1.7108    3.7727   18.9260 C.ar    1  UNL1        0.0500
     40 C          -3.0496    3.7029   19.5989 C.ar    1  UNL1        0.0814
     41 H           0.3713    3.5328   21.7436 H       1  UNL1        0.2108
@<TRIPOS>BOND
     1    12    13    2
     2    13    14    1
     3    14    15    1
     4    15    16    1
     5    16    17   ar
     6    17    18   ar
     7    18    19   ar
     8    19    11    1
     9    11     9    1
    10     9     1    1
    11     1     2    1
    12     2     3    1
    13     3     4    1
    14     4    24    1
    15    24    25    1
    16    25    26    1
    17    25    27    1
    18    27    28    1
    19    28    29   ar
    20    29    30    2
    21    29    31   ar
    22    31    32   ar
    23    32    33    1
    24    32    34   ar
    25    34    35   ar
    26    35    36   ar
    27    36    37   ar
    28    37    38    1
    29    37    39   ar
    30    39    40   ar
    31     4     5    1
    32     5     6    1
    33     4     7    1
    34     7     8    1
    35    19    20   ar
    36    20    21   ar
    37    21    22    1
    38    22    13   am
    39    21    16   ar
    40     6     1    1
    41     8     1    1
    42    39    25    1
    43    40    28   ar
    44    40    34   ar
    45     9    10    1
    46    26    41    1
    47    22    23    1
@<TRIPOS>MOLECULE
*****
 41 47 0 0 0
SMALL
GASTEIGER

@<TRIPOS>ATOM
      1 C           6.3795   -3.1842   31.9394 C.3     1  UNL1        0.0700
      2 C           6.5053   -2.1135   30.8964 C.3     1  UNL1        0.0193
      3 C           5.5084   -0.9938   30.8470 C.3     1  UNL1        0.0287
      4 C           4.3857   -0.9446   31.8407 C.3     1  UNL1        0.0955
      5 C           4.2600   -2.0153   32.8837 C.3     1  UNL1        0.0287
      6 C           5.2568   -3.1350   32.9331 C.3     1  UNL1        0.0193
      7 O           4.9077   -1.5780   31.9073 O.3     1  UNL1       -0.3571
      8 C           5.8091   -2.5905   31.9519 C.3     1  UNL1        0.1562
      9 N           7.3763   -4.3039   31.9888 N.3     1  UNL1       -0.2926
     10 H           8.2353   -3.9523   31.5658 H       1  UNL1        0.1236
     11 C           7.0689   -5.6117   31.3216 C.3     1  UNL1        0.1152
     12 O           5.9969   -3.8273   23.8105 O.2     1  UNL1       -0.2707
     13 C           6.6989   -4.6259   24.8686 C.2     1  UNL1        0.2718
     14 C           7.7455   -5.6282   24.4812 C.3     1  UNL1        0.2898
     15 O           8.4474   -6.4267   25.5393 O.3     1  UNL1       -0.4628
     16 C           8.1028   -6.2230   26.9848 C.ar    1  UNL1        0.1708
     17 C           8.8047   -7.0215   28.0430 C.ar    1  UNL1        0.0411
     18 C           8.4601   -6.8177   29.4886 C.ar    1  UNL1        0.0193
     19 C           7.4136   -5.8154   29.8761 C.ar    1  UNL1        0.0765
     20 N           6.7116   -5.0169   28.8179 N.ar    1  UNL1       -0.2304
     21 C           7.0562   -5.2207   27.3723 C.ar    1  UNL1        0.1682
     22 N           6.3543   -4.4221   26.3142 N.am    1  UNL1       -0.2639
     23 H           5.6674   -3.7643   26.5685 H       1  UNL1        0.1565
     24 C           3.3889    0.1751   31.7913 C.3     1  UNL1        0.0604
     25 C           2.4017    0.2513   30.6645 C.3     1  UNL1        0.1335
     26 O           2.2975   -1.2317   30.8642 O.3     1  UNL1       -0.3806
     27 C           1.3928    0.0174   29.5794 C.3     1  UNL1        0.1402
     28 N           1.0797    1.3399   28.9447 N.ar    1  UNL1       -0.2914
     29 C           0.2532    2.0025   27.8732 C.ar    1  UNL1        0.2620
     30 O          -0.6199    1.0667   27.0910 O.2     1  UNL1       -0.2669
     31 C           0.2519    3.4691   27.5583 C.ar    1  UNL1        0.0737
     32 C           1.1250    4.4049   28.3405 C.ar    1  UNL1        0.0814
     33 CL          1.1238    5.8715   28.0257 Cl      1  UNL1       -0.0805
     34 C           1.9995    3.8742   29.4377 C.ar    1  UNL1        0.1077
     35 N           2.9207    4.6843   30.3008 N.ar    1  UNL1       -0.2392
     36 C           3.7377    4.0115   31.3637 C.ar    1  UNL1        0.1282
     37 C           3.6335    2.5285   31.5634 C.ar    1  UNL1        0.1588
     38 F           4.4505    1.8557   32.6264 F       1  UNL1       -0.2027
     39 C           2.7123    1.7183   30.7003 C.ar    1  UNL1        0.0500
     40 C           1.8953    2.3912   29.6374 C.ar    1  UNL1        0.0814
     41 H           1.6632   -1.5997   30.2293 H       1  UNL1        0.2108
@<TRIPOS>BOND
     1    12    13    2
     2    13    14    1
     3    14    15    1
     4    15    16    1
     5    16    17   ar
     6    17    18   ar
     7    18    19   ar
     8    19    11    1
     9    11     9    1
    10     9     1    1
    11     1     2    1
    12     2     3    1
    13     3     4    1
    14     4    24    1
    15    24    25    1
    16    25    26    1
    17    25    27    1
    18    27    28    1
    19    28    29   ar
    20    29    30    2
    21    29    31   ar
    22    31    32   ar
    23    32    33    1
    24    32    34   ar
    25    34    35   ar
    26    35    36   ar
    27    36    37   ar
    28    37    38    1
    29    37    39   ar
    30    39    40   ar
    31     4     5    1
    32     5     6    1
    33     4     7    1
    34     7     8    1
    35    19    20   ar
    36    20    21   ar
    37    21    22    1
    38    22    13   am
    39    21    16   ar
    40     6     1    1
    41     8     1    1
    42    39    25    1
    43    40    28   ar
    44    40    34   ar
    45     9    10    1
    46    26    41    1
    47    22    23    1
