@<TRIPOS>MOLECULE
*****
 28 31 0 0 0
SMALL
GASTEIGER

@<TRIPOS>ATOM
      1 O           2.1352   -0.2201   21.3294 O.2     1  UNL1       -0.2522
      2 C           2.9878   -0.5742   22.5116 C.2     1  UNL1        0.3080
      3 N           4.2292   -1.3945   22.3222 N.am    1  UNL1       -0.2681
      4 N           2.5990   -0.1078   23.8833 N.am    1  UNL1       -0.2559
      5 C           3.5197   -0.5165   24.9948 C.3     1  UNL1        0.1425
      6 C           3.4097   -0.2127   26.4597 C.3     1  UNL1        0.2268
      7 O           2.3520    0.5746   27.1746 O.3     1  UNL1       -0.4739
      8 C           1.1429    1.2527   26.6015 C.ar    1  UNL1        0.1362
      9 C           0.3394    1.9344   27.6690 C.ar    1  UNL1        0.0366
     10 C          -0.9141    2.6744   27.3067 C.ar    1  UNL1        0.0031
     11 C          -1.3640    2.7326   25.8769 C.ar    1  UNL1        0.0000
     12 C          -0.5604    2.0508   24.8094 C.ar    1  UNL1        0.0004
     13 C           0.6930    1.3109   25.1718 C.ar    1  UNL1        0.0317
     14 C           1.3411    0.7053   23.9621 C.3     1  UNL1        0.1248
     15 H           4.7888   -1.6269   23.0982 H       1  UNL1        0.1564
     16 C           4.6180   -1.8608   20.9505 C.ar    1  UNL1        0.0524
     17 C           5.3210   -0.9257   20.0117 C.ar    1  UNL1        0.0148
     18 C           5.7097   -1.3921   18.6401 C.ar    1  UNL1        0.0021
     19 C           5.3955   -2.7935   18.2073 C.ar    1  UNL1        0.0115
     20 C           4.6925   -3.7285   19.1461 C.ar    1  UNL1        0.0589
     21 CL          4.3782   -5.1300   18.7132 Cl      1  UNL1       -0.0822
     22 C           4.3037   -3.2622   20.5177 C.ar    1  UNL1        0.0261
     23 C          -2.6174    3.4726   25.5146 C.ar    1  UNL1        0.0031
     24 C          -2.9184    3.7795   24.0775 C.ar    1  UNL1        0.0207
     25 C          -4.1718    4.5195   23.7151 C.ar    1  UNL1        0.0989
     26 N          -5.1244    4.9526   24.7899 N.ar    1  UNL1       -0.2423
     27 C          -4.8234    4.6457   26.2270 C.ar    1  UNL1        0.0989
     28 C          -3.5699    3.9057   26.5893 C.ar    1  UNL1        0.0207
@<TRIPOS>BOND
     1     1     2    2
     2     2     3   am
     3     3    16    1
     4    16    17   ar
     5    17    18   ar
     6    18    19   ar
     7    19    20   ar
     8    20    21    1
     9    20    22   ar
    10     2     4   am
    11     4     5    1
    12     5     6    1
    13     6     7    1
    14     7     8    1
    15     8     9   ar
    16     9    10   ar
    17    10    11   ar
    18    11    23    1
    19    23    24   ar
    20    24    25   ar
    21    25    26   ar
    22    26    27   ar
    23    27    28   ar
    24    11    12   ar
    25    12    13   ar
    26    13    14    1
    27    22    16   ar
    28    14     4    1
    29    13     8   ar
    30    28    23   ar
    31     3    15    1
@<TRIPOS>MOLECULE
*****
 28 31 0 0 0
SMALL
GASTEIGER

@<TRIPOS>ATOM
      1 O           5.9453   -2.2994   25.0544 O.2     1  UNL1       -0.2522
      2 C           6.4724   -3.6985   24.9336 C.2     1  UNL1        0.3080
      3 N           6.6861   -4.3052   23.5786 N.am    1  UNL1       -0.2681
      4 N           6.7859   -4.4909   26.1681 N.am    1  UNL1       -0.2559
      5 C           7.3072   -5.8782   25.9359 C.3     1  UNL1        0.1425
      6 C           7.7080   -6.9085   26.9498 C.3     1  UNL1        0.2268
      7 O           7.6864   -6.8060   28.4461 O.3     1  UNL1       -0.4739
      8 C           7.2587   -5.6480   29.2982 C.ar    1  UNL1        0.1362
      9 C           7.3943   -5.9627   30.7585 C.ar    1  UNL1        0.0366
     10 C           7.0181   -4.9357   31.7851 C.ar    1  UNL1        0.0031
     11 C           6.5063   -3.5940   31.3513 C.ar    1  UNL1        0.0000
     12 C           6.3708   -3.2794   29.8909 C.ar    1  UNL1        0.0004
     13 C           6.7470   -4.3064   28.8644 C.ar    1  UNL1        0.0317
     14 C           6.5366   -3.7915   27.4713 C.3     1  UNL1        0.1248
     15 H           7.0321   -5.2235   23.4994 H       1  UNL1        0.1564
     16 C           6.3726   -3.5127   22.3441 C.ar    1  UNL1        0.0524
     17 C           7.3838   -2.5516   21.7930 C.ar    1  UNL1        0.0148
     18 C           7.0703   -1.7591   20.5586 C.ar    1  UNL1        0.0021
     19 C           5.7457   -1.9278   19.8754 C.ar    1  UNL1        0.0115
     20 C           4.7345   -2.8888   20.4265 C.ar    1  UNL1        0.0589
     21 CL          3.4098   -3.0575   19.7432 Cl      1  UNL1       -0.0822
     22 C           5.0480   -3.6813   21.6609 C.ar    1  UNL1        0.0261
     23 C           6.1302   -2.5671   32.3778 C.ar    1  UNL1        0.0031
     24 C           4.7617   -2.5865   32.9916 C.ar    1  UNL1        0.0207
     25 C           4.3855   -1.5595   34.0181 C.ar    1  UNL1        0.0989
     26 N           5.3778   -0.5130   34.4308 N.ar    1  UNL1       -0.2423
     27 C           6.7463   -0.4936   33.8170 C.ar    1  UNL1        0.0989
     28 C           7.1225   -1.5207   32.7904 C.ar    1  UNL1        0.0207
@<TRIPOS>BOND
     1     1     2    2
     2     2     3   am
     3     3    16    1
     4    16    17   ar
     5    17    18   ar
     6    18    19   ar
     7    19    20   ar
     8    20    21    1
     9    20    22   ar
    10     2     4   am
    11     4     5    1
    12     5     6    1
    13     6     7    1
    14     7     8    1
    15     8     9   ar
    16     9    10   ar
    17    10    11   ar
    18    11    23    1
    19    23    24   ar
    20    24    25   ar
    21    25    26   ar
    22    26    27   ar
    23    27    28   ar
    24    11    12   ar
    25    12    13   ar
    26    13    14    1
    27    22    16   ar
    28    14     4    1
    29    13     8   ar
    30    28    23   ar
    31     3    15    1
@<TRIPOS>MOLECULE
*****
 28 31 0 0 0
SMALL
GASTEIGER

@<TRIPOS>ATOM
      1 O           3.3618   -0.8169   22.0075 O.2     1  UNL1       -0.2522
      2 C           2.6049    0.0389   21.0355 C.2     1  UNL1        0.3080
      3 N           2.9210   -0.0303   19.5709 N.am    1  UNL1       -0.2681
      4 N           1.5317    0.9638   21.5283 N.am    1  UNL1       -0.2559
      5 C           0.8368    1.7743   20.4746 C.3     1  UNL1        0.1425
      6 C          -0.2661    2.7772   20.6420 C.3     1  UNL1        0.2268
      7 O          -0.9464    3.2171   21.9042 O.3     1  UNL1       -0.4739
      8 C          -0.6920    2.7630   23.3110 C.ar    1  UNL1        0.1362
      9 C          -1.5980    3.4581   24.2836 C.ar    1  UNL1        0.0366
     10 C          -1.5063    3.1469   25.7482 C.ar    1  UNL1        0.0031
     11 C          -0.5087    2.1406   26.2400 C.ar    1  UNL1        0.0000
     12 C           0.3974    1.4455   25.2674 C.ar    1  UNL1        0.0004
     13 C           0.3057    1.7567   23.8029 C.ar    1  UNL1        0.0317
     14 C           1.2953    0.9560   23.0095 C.3     1  UNL1        0.1248
     15 H           2.4242    0.5314   18.9330 H       1  UNL1        0.1564
     16 C           3.9943   -0.9553   19.0781 C.ar    1  UNL1        0.0524
     17 C           5.2875   -0.3966   18.5630 C.ar    1  UNL1        0.0148
     18 C           6.3606   -1.3217   18.0703 C.ar    1  UNL1        0.0021
     19 C           6.1405   -2.8052   18.0927 C.ar    1  UNL1        0.0115
     20 C           4.8473   -3.3638   18.6079 C.ar    1  UNL1        0.0589
     21 CL          4.6272   -4.8475   18.6303 Cl      1  UNL1       -0.0822
     22 C           3.7741   -2.4388   19.1006 C.ar    1  UNL1        0.0261
     23 C          -0.4170    1.8293   27.7045 C.ar    1  UNL1        0.0031
     24 C          -1.2192    0.7018   28.2833 C.ar    1  UNL1        0.0207
     25 C          -1.1275    0.3905   29.7477 C.ar    1  UNL1        0.0989
     26 N          -0.2336    1.2069   30.6335 N.ar    1  UNL1       -0.2423
     27 C           0.5686    2.3345   30.0547 C.ar    1  UNL1        0.0989
     28 C           0.4769    2.6457   28.5902 C.ar    1  UNL1        0.0207
@<TRIPOS>BOND
     1     1     2    2
     2     2     3   am
     3     3    16    1
     4    16    17   ar
     5    17    18   ar
     6    18    19   ar
     7    19    20   ar
     8    20    21    1
     9    20    22   ar
    10     2     4   am
    11     4     5    1
    12     5     6    1
    13     6     7    1
    14     7     8    1
    15     8     9   ar
    16     9    10   ar
    17    10    11   ar
    18    11    23    1
    19    23    24   ar
    20    24    25   ar
    21    25    26   ar
    22    26    27   ar
    23    27    28   ar
    24    11    12   ar
    25    12    13   ar
    26    13    14    1
    27    22    16   ar
    28    14     4    1
    29    13     8   ar
    30    28    23   ar
    31     3    15    1
@<TRIPOS>MOLECULE
*****
 28 31 0 0 0
SMALL
GASTEIGER

@<TRIPOS>ATOM
      1 O           6.5163   -4.5680   24.7593 O.2     1  UNL1       -0.2522
      2 C           7.7624   -4.7597   23.9466 C.2     1  UNL1        0.3080
      3 N           8.9195   -5.5250   24.5170 N.am    1  UNL1       -0.2681
      4 N           7.8513   -4.1862   22.5634 N.am    1  UNL1       -0.2559
      5 C           9.1400   -4.4352   21.8372 C.3     1  UNL1        0.1425
      6 C           9.5355   -3.9990   20.4576 C.3     1  UNL1        0.2268
      7 O           8.7399   -3.2061   19.4635 O.3     1  UNL1       -0.4739
      8 C           7.3524   -2.6536   19.6033 C.ar    1  UNL1        0.1362
      9 C           6.9283   -1.9178   18.3668 C.ar    1  UNL1        0.0366
     10 C           5.5696   -1.2860   18.2990 C.ar    1  UNL1        0.0031
     11 C           4.6349   -1.3899   19.4676 C.ar    1  UNL1        0.0000
     12 C           5.0591   -2.1256   20.7041 C.ar    1  UNL1        0.0004
     13 C           6.4178   -2.7574   20.7719 C.ar    1  UNL1        0.0317
     14 C           6.6399   -3.4396   22.0893 C.3     1  UNL1        0.1248
     15 H           9.7374   -5.6508   23.9835 H       1  UNL1        0.1564
     16 C           8.8306   -6.0985   25.9002 C.ar    1  UNL1        0.0524
     17 C           9.0323   -5.2127   27.0938 C.ar    1  UNL1        0.0148
     18 C           8.9433   -5.7863   28.4769 C.ar    1  UNL1        0.0021
     19 C           8.6527   -7.2456   28.6665 C.ar    1  UNL1        0.0115
     20 C           8.4510   -8.1313   27.4729 C.ar    1  UNL1        0.0589
     21 CL          8.1604   -9.5907   27.6625 Cl      1  UNL1       -0.0822
     22 C           8.5400   -7.5578   26.0898 C.ar    1  UNL1        0.0261
     23 C           3.2762   -0.7580   19.3998 C.ar    1  UNL1        0.0031
     24 C           2.9433    0.1868   18.2834 C.ar    1  UNL1        0.0207
     25 C           1.5846    0.8187   18.2155 C.ar    1  UNL1        0.0989
     26 N           0.5587    0.5056   19.2642 N.ar    1  UNL1       -0.2423
     27 C           0.8916   -0.4393   20.3806 C.ar    1  UNL1        0.0989
     28 C           2.2504   -1.0711   20.4484 C.ar    1  UNL1        0.0207
@<TRIPOS>BOND
     1     1     2    2
     2     2     3   am
     3     3    16    1
     4    16    17   ar
     5    17    18   ar
     6    18    19   ar
     7    19    20   ar
     8    20    21    1
     9    20    22   ar
    10     2     4   am
    11     4     5    1
    12     5     6    1
    13     6     7    1
    14     7     8    1
    15     8     9   ar
    16     9    10   ar
    17    10    11   ar
    18    11    23    1
    19    23    24   ar
    20    24    25   ar
    21    25    26   ar
    22    26    27   ar
    23    27    28   ar
    24    11    12   ar
    25    12    13   ar
    26    13    14    1
    27    22    16   ar
    28    14     4    1
    29    13     8   ar
    30    28    23   ar
    31     3    15    1
@<TRIPOS>MOLECULE
*****
 28 31 0 0 0
SMALL
GASTEIGER

@<TRIPOS>ATOM
      1 O           5.9741   -2.2163   29.5867 O.2     1  UNL1       -0.2522
      2 C           6.5868   -3.4844   30.1031 C.2     1  UNL1        0.3080
      3 N           6.6952   -3.7175   31.5808 N.am    1  UNL1       -0.2681
      4 N           7.0912   -4.5193   29.1415 N.am    1  UNL1       -0.2559
      5 C           7.6851   -5.7493   29.7617 C.3     1  UNL1        0.1425
      6 C           8.2695   -6.9512   29.0805 C.3     1  UNL1        0.2268
      7 O           8.4042   -7.2199   27.6110 O.3     1  UNL1       -0.4739
      8 C           7.9879   -6.3533   26.4597 C.ar    1  UNL1        0.1362
      9 C           8.3053   -7.0001   25.1441 C.ar    1  UNL1        0.0366
     10 C           7.9688   -6.2974   23.8622 C.ar    1  UNL1        0.0031
     11 C           7.3149   -4.9478   23.8961 C.ar    1  UNL1        0.0000
     12 C           6.9975   -4.3010   25.2118 C.ar    1  UNL1        0.0004
     13 C           7.3340   -5.0038   26.4935 C.ar    1  UNL1        0.0317
     14 C           6.9349   -4.1876   27.6871 C.3     1  UNL1        0.1248
     15 H           7.0974   -4.5497   31.9197 H       1  UNL1        0.1564
     16 C           6.1908   -2.6824   32.5424 C.ar    1  UNL1        0.0524
     17 C           4.7795   -2.7509   33.0458 C.ar    1  UNL1        0.0148
     18 C           4.2752   -1.7159   34.0073 C.ar    1  UNL1        0.0021
     19 C           5.1822   -0.6125   34.4653 C.ar    1  UNL1        0.0115
     20 C           6.5935   -0.5441   33.9619 C.ar    1  UNL1        0.0589
     21 CL          7.5005    0.5594   34.4199 Cl      1  UNL1       -0.0822
     22 C           7.0978   -1.5790   33.0004 C.ar    1  UNL1        0.0261
     23 C           6.9783   -4.2451   22.6144 C.ar    1  UNL1        0.0031
     24 C           5.5913   -3.7208   22.3883 C.ar    1  UNL1        0.0207
     25 C           5.2547   -3.0181   21.1065 C.ar    1  UNL1        0.0989
     26 N           6.3053   -2.8396   20.0508 N.ar    1  UNL1       -0.2423
     27 C           7.6924   -3.3639   20.2769 C.ar    1  UNL1        0.0989
     28 C           8.0289   -4.0667   21.5587 C.ar    1  UNL1        0.0207
@<TRIPOS>BOND
     1     1     2    2
     2     2     3   am
     3     3    16    1
     4    16    17   ar
     5    17    18   ar
     6    18    19   ar
     7    19    20   ar
     8    20    21    1
     9    20    22   ar
    10     2     4   am
    11     4     5    1
    12     5     6    1
    13     6     7    1
    14     7     8    1
    15     8     9   ar
    16     9    10   ar
    17    10    11   ar
    18    11    23    1
    19    23    24   ar
    20    24    25   ar
    21    25    26   ar
    22    26    27   ar
    23    27    28   ar
    24    11    12   ar
    25    12    13   ar
    26    13    14    1
    27    22    16   ar
    28    14     4    1
    29    13     8   ar
    30    28    23   ar
    31     3    15    1
@<TRIPOS>MOLECULE
*****
 28 31 0 0 0
SMALL
GASTEIGER

@<TRIPOS>ATOM
      1 O           5.5985   -2.4014   26.5324 O.2     1  UNL1       -0.2522
      2 C           6.6112   -3.3490   25.9612 C.2     1  UNL1        0.3080
      3 N           7.5813   -4.0462   26.8682 N.am    1  UNL1       -0.2681
      4 N           6.6538   -3.5995   24.4828 N.am    1  UNL1       -0.2559
      5 C           7.7037   -4.5639   24.0161 C.3     1  UNL1        0.1425
      6 C           8.0000   -5.0194   22.6179 C.3     1  UNL1        0.2268
      7 O           7.3196   -4.6231   21.3414 O.3     1  UNL1       -0.4739
      8 C           6.1748   -3.6735   21.1474 C.ar    1  UNL1        0.1362
      9 C           5.7962   -3.5597   19.7004 C.ar    1  UNL1        0.0366
     10 C           4.6705   -2.6579   19.2883 C.ar    1  UNL1        0.0031
     11 C           3.9235   -1.8700   20.3232 C.ar    1  UNL1        0.0000
     12 C           4.3021   -1.9838   21.7702 C.ar    1  UNL1        0.0004
     13 C           5.4277   -2.8855   22.1823 C.ar    1  UNL1        0.0317
     14 C           5.6409   -2.8526   23.6667 C.3     1  UNL1        0.1248
     15 H           8.2460   -4.6682   26.4933 H       1  UNL1        0.1564
     16 C           7.5387   -3.7957   28.3466 C.ar    1  UNL1        0.0524
     17 C           7.8288   -2.4256   28.8837 C.ar    1  UNL1        0.0148
     18 C           7.7862   -2.1752   30.3621 C.ar    1  UNL1        0.0021
     19 C           7.4535   -3.2949   31.3032 C.ar    1  UNL1        0.0115
     20 C           7.1635   -4.6649   30.7660 C.ar    1  UNL1        0.0589
     21 CL          6.8308   -5.7846   31.7072 Cl      1  UNL1       -0.0822
     22 C           7.2061   -4.9154   29.2877 C.ar    1  UNL1        0.0261
     23 C           2.7978   -0.9683   19.9112 C.ar    1  UNL1        0.0031
     24 C           1.6051   -0.8010   20.8052 C.ar    1  UNL1        0.0207
     25 C           0.4795    0.1007   20.3932 C.ar    1  UNL1        0.0989
     26 N           0.5465    0.8352   19.0870 N.ar    1  UNL1       -0.2423
     27 C           1.7393    0.6679   18.1929 C.ar    1  UNL1        0.0989
     28 C           2.8649   -0.2338   18.6050 C.ar    1  UNL1        0.0207
@<TRIPOS>BOND
     1     1     2    2
     2     2     3   am
     3     3    16    1
     4    16    17   ar
     5    17    18   ar
     6    18    19   ar
     7    19    20   ar
     8    20    21    1
     9    20    22   ar
    10     2     4   am
    11     4     5    1
    12     5     6    1
    13     6     7    1
    14     7     8    1
    15     8     9   ar
    16     9    10   ar
    17    10    11   ar
    18    11    23    1
    19    23    24   ar
    20    24    25   ar
    21    25    26   ar
    22    26    27   ar
    23    27    28   ar
    24    11    12   ar
    25    12    13   ar
    26    13    14    1
    27    22    16   ar
    28    14     4    1
    29    13     8   ar
    30    28    23   ar
    31     3    15    1
@<TRIPOS>MOLECULE
*****
 28 31 0 0 0
SMALL
GASTEIGER

@<TRIPOS>ATOM
      1 O         -16.1775   -0.6323   18.6543 O.2     1  UNL1       -0.2522
      2 C         -14.7039   -0.3526   18.6567 C.2     1  UNL1        0.3080
      3 N         -14.2091    1.0629   18.6182 N.am    1  UNL1       -0.2681
      4 N         -13.7250   -1.4885   18.6975 N.am    1  UNL1       -0.2559
      5 C         -12.2763   -1.0994   18.6965 C.3     1  UNL1        0.1425
      6 C         -11.0690   -1.9890   18.7317 C.3     1  UNL1        0.2268
      7 O         -11.0123   -3.4871   18.7766 O.3     1  UNL1       -0.4739
      8 C         -12.1487   -4.4660   18.7975 C.ar    1  UNL1        0.1362
      9 C         -11.6527   -5.8808   18.8431 C.ar    1  UNL1        0.0366
     10 C         -12.6306   -7.0180   18.8699 C.ar    1  UNL1        0.0031
     11 C         -14.1045   -6.7402   18.8509 C.ar    1  UNL1        0.0000
     12 C         -14.6005   -5.3253   18.8052 C.ar    1  UNL1        0.0004
     13 C         -13.6227   -4.1882   18.7785 C.ar    1  UNL1        0.0317
     14 C         -14.3241   -2.8630   18.7340 C.3     1  UNL1        0.1248
     15 H         -13.2418    1.2464   18.6197 H       1  UNL1        0.1564
     16 C         -15.1880    2.1987   18.5773 C.ar    1  UNL1        0.0524
     17 C         -15.6963    2.7037   17.2595 C.ar    1  UNL1        0.0148
     18 C         -16.6753    3.8395   17.2187 C.ar    1  UNL1        0.0021
     19 C         -17.1458    4.4703   18.4956 C.ar    1  UNL1        0.0115
     20 C         -16.6375    3.9653   19.8134 C.ar    1  UNL1        0.0589
     21 CL        -17.1081    4.5962   21.0904 Cl      1  UNL1       -0.0822
     22 C         -15.6586    2.8296   19.8542 C.ar    1  UNL1        0.0261
     23 C         -15.0824   -7.8773   18.8776 C.ar    1  UNL1        0.0031
     24 C         -14.8005   -9.1274   18.0981 C.ar    1  UNL1        0.0207
     25 C         -15.7784  -10.2645   18.1248 C.ar    1  UNL1        0.0989
     26 N         -17.0382  -10.1515   18.9311 N.ar    1  UNL1       -0.2423
     27 C         -17.3201   -8.9013   19.7106 C.ar    1  UNL1        0.0989
     28 C         -16.3422   -7.7642   19.6839 C.ar    1  UNL1        0.0207
@<TRIPOS>BOND
     1     1     2    2
     2     2     3   am
     3     3    16    1
     4    16    17   ar
     5    17    18   ar
     6    18    19   ar
     7    19    20   ar
     8    20    21    1
     9    20    22   ar
    10     2     4   am
    11     4     5    1
    12     5     6    1
    13     6     7    1
    14     7     8    1
    15     8     9   ar
    16     9    10   ar
    17    10    11   ar
    18    11    23    1
    19    23    24   ar
    20    24    25   ar
    21    25    26   ar
    22    26    27   ar
    23    27    28   ar
    24    11    12   ar
    25    12    13   ar
    26    13    14    1
    27    22    16   ar
    28    14     4    1
    29    13     8   ar
    30    28    23   ar
    31     3    15    1
@<TRIPOS>MOLECULE
*****
 28 31 0 0 0
SMALL
GASTEIGER

@<TRIPOS>ATOM
      1 O          -0.9808    2.4358   24.3708 O.2     1  UNL1       -0.2522
      2 C          -1.3480    3.2176   23.1444 C.2     1  UNL1        0.3080
      3 N          -2.3080    4.3656   23.2463 N.am    1  UNL1       -0.2681
      4 N          -0.7549    2.8514   21.8162 N.am    1  UNL1       -0.2559
      5 C          -1.1881    3.6965   20.6549 C.3     1  UNL1        0.1425
      6 C          -0.7804    3.5874   19.2154 C.3     1  UNL1        0.2268
      7 O           0.1609    2.6065   18.5818 O.3     1  UNL1       -0.4739
      8 C           0.9272    1.4923   19.2310 C.ar    1  UNL1        0.1362
      9 C           1.7591    0.7445   18.2317 C.ar    1  UNL1        0.0366
     10 C           2.6053   -0.4118   18.6757 C.ar    1  UNL1        0.0031
     11 C           2.6194   -0.8202   20.1189 C.ar    1  UNL1        0.0000
     12 C           1.7874   -0.0723   21.1182 C.ar    1  UNL1        0.0004
     13 C           0.9414    1.0839   20.6742 C.ar    1  UNL1        0.0317
     14 C           0.1927    1.6889   21.8247 C.3     1  UNL1        0.1248
     15 H          -2.5490    4.8787   22.4414 H       1  UNL1        0.1564
     16 C          -2.9011    4.7317   24.5746 C.ar    1  UNL1        0.0524
     17 C          -4.1069    4.0000   25.0849 C.ar    1  UNL1        0.0148
     18 C          -4.6999    4.3662   26.4132 C.ar    1  UNL1        0.0021
     19 C          -4.0870    5.4641   27.2311 C.ar    1  UNL1        0.0115
     20 C          -2.8812    6.1958   26.7208 C.ar    1  UNL1        0.0589
     21 CL         -2.2683    7.2937   27.5387 Cl      1  UNL1       -0.0822
     22 C          -2.2882    5.8296   25.3925 C.ar    1  UNL1        0.0261
     23 C           3.4655   -1.9765   20.5629 C.ar    1  UNL1        0.0031
     24 C           3.9110   -2.0748   21.9919 C.ar    1  UNL1        0.0207
     25 C           4.7571   -3.2310   22.4359 C.ar    1  UNL1        0.0989
     26 N           5.1577   -4.2891   21.4509 N.ar    1  UNL1       -0.2423
     27 C           4.7122   -4.1908   20.0220 C.ar    1  UNL1        0.0989
     28 C           3.8661   -3.0345   19.5780 C.ar    1  UNL1        0.0207
@<TRIPOS>BOND
     1     1     2    2
     2     2     3   am
     3     3    16    1
     4    16    17   ar
     5    17    18   ar
     6    18    19   ar
     7    19    20   ar
     8    20    21    1
     9    20    22   ar
    10     2     4   am
    11     4     5    1
    12     5     6    1
    13     6     7    1
    14     7     8    1
    15     8     9   ar
    16     9    10   ar
    17    10    11   ar
    18    11    23    1
    19    23    24   ar
    20    24    25   ar
    21    25    26   ar
    22    26    27   ar
    23    27    28   ar
    24    11    12   ar
    25    12    13   ar
    26    13    14    1
    27    22    16   ar
    28    14     4    1
    29    13     8   ar
    30    28    23   ar
    31     3    15    1
@<TRIPOS>MOLECULE
*****
 28 31 0 0 0
SMALL
GASTEIGER

@<TRIPOS>ATOM
      1 O           3.5987   -1.0611   22.7274 O.2     1  UNL1       -0.2522
      2 C           4.3823   -1.7570   21.6543 C.2     1  UNL1        0.3080
      3 N           4.1242   -1.4391   20.2113 N.am    1  UNL1       -0.2681
      4 N           5.4240   -2.7709   22.0242 N.am    1  UNL1       -0.2559
      5 C           6.1493   -3.4074   20.8758 C.3     1  UNL1        0.1425
      6 C           7.2325   -4.4445   20.9131 C.3     1  UNL1        0.2268
      7 O           7.8577   -5.1011   22.1080 O.3     1  UNL1       -0.4739
      8 C           7.5544   -4.8829   23.5607 C.ar    1  UNL1        0.1362
      9 C           8.4132   -5.7470   24.4357 C.ar    1  UNL1        0.0366
     10 C           8.2685   -5.6824   25.9274 C.ar    1  UNL1        0.0031
     11 C           7.2649   -4.7536   26.5440 C.ar    1  UNL1        0.0000
     12 C           6.4060   -3.8895   25.6689 C.ar    1  UNL1        0.0004
     13 C           6.5507   -3.9542   24.1773 C.ar    1  UNL1        0.0317
     14 C           5.6027   -3.0143   23.4934 C.3     1  UNL1        0.1248
     15 H           4.6385   -1.8958   19.5070 H       1  UNL1        0.1564
     16 C           3.0824   -0.4251   19.8414 C.ar    1  UNL1        0.0524
     17 C           1.6332   -0.7086   20.1044 C.ar    1  UNL1        0.0148
     18 C           0.5915    0.3054   19.7345 C.ar    1  UNL1        0.0021
     19 C           0.9991    1.6028   19.1016 C.ar    1  UNL1        0.0115
     20 C           2.4484    1.8862   18.8386 C.ar    1  UNL1        0.0589
     21 CL          2.8559    3.1837   18.2056 Cl      1  UNL1       -0.0822
     22 C           3.4900    0.8723   19.2085 C.ar    1  UNL1        0.0261
     23 C           7.1201   -4.6890   28.0355 C.ar    1  UNL1        0.0031
     24 C           6.7104   -3.4052   28.6943 C.ar    1  UNL1        0.0207
     25 C           6.5657   -3.3405   30.1859 C.ar    1  UNL1        0.0989
     26 N           6.8306   -4.5597   31.0187 N.ar    1  UNL1       -0.2423
     27 C           7.2403   -5.8435   30.3599 C.ar    1  UNL1        0.0989
     28 C           7.3850   -5.9081   28.8683 C.ar    1  UNL1        0.0207
@<TRIPOS>BOND
     1     1     2    2
     2     2     3   am
     3     3    16    1
     4    16    17   ar
     5    17    18   ar
     6    18    19   ar
     7    19    20   ar
     8    20    21    1
     9    20    22   ar
    10     2     4   am
    11     4     5    1
    12     5     6    1
    13     6     7    1
    14     7     8    1
    15     8     9   ar
    16     9    10   ar
    17    10    11   ar
    18    11    23    1
    19    23    24   ar
    20    24    25   ar
    21    25    26   ar
    22    26    27   ar
    23    27    28   ar
    24    11    12   ar
    25    12    13   ar
    26    13    14    1
    27    22    16   ar
    28    14     4    1
    29    13     8   ar
    30    28    23   ar
    31     3    15    1
