@<TRIPOS>MOLECULE
*****
 33 38 0 0 0
SMALL
GASTEIGER

@<TRIPOS>ATOM
      1 C           2.2838   -0.5720   20.1310 C.3     1  UNL1        0.0279
      2 C           2.7825   -1.2604   21.3669 C.3     1  UNL1        0.0089
      3 C           4.1779   -1.7409   21.0989 C.3     1  UNL1        0.0227
      4 C           3.6751   -2.0640   22.4746 C.3     1  UNL1        0.0257
      5 C           4.5527   -2.8057   23.4388 C.3     1  UNL1        0.0953
      6 N           5.9331   -3.2243   23.0272 N.am    1  UNL1       -0.2642
      7 C           6.8107   -3.9660   23.9915 C.2     1  UNL1        0.3039
      8 O           8.1910   -4.3846   23.5800 O.2     1  UNL1       -0.2526
      9 N           6.3079   -4.2891   25.3673 N.am    1  UNL1       -0.2904
     10 C           6.4359   -2.9012   21.6515 C.3     1  UNL1        0.0953
     11 C           5.5583   -2.1595   20.6873 C.3     1  UNL1        0.0257
     12 C           4.5416   -1.3496   19.6972 C.ar    1  UNL1       -0.0204
     13 C           5.7876   -1.5577   18.8883 C.ar    1  UNL1        0.0303
     14 BR          6.9582   -2.2801   19.4864 Br      1  UNL1       -0.0493
     15 C           5.8629   -1.0434   17.4812 C.ar    1  UNL1        0.0064
     16 C           4.6923   -0.3210   16.8831 C.ar    1  UNL1        0.0002
     17 C           3.4464   -0.1129   17.6919 C.ar    1  UNL1       -0.0045
     18 C           3.3710   -0.6271   19.0990 C.ar    1  UNL1       -0.0256
     19 H           5.4019   -4.0143   25.6374 H       1  UNL1        0.1509
     20 C           7.1855   -5.0308   26.3316 C.3     1  UNL1        0.0729
     21 C           7.2357   -6.5296   26.2997 C.3     1  UNL1        0.0180
     22 C           8.0631   -5.7724   27.2958 C.3     1  UNL1        0.0016
     23 C           8.9406   -6.5140   28.2601 C.3     1  UNL1        0.0001
     24 C           8.9909   -8.0129   28.2283 C.3     1  UNL1        0.0000
     25 C           8.1636   -8.7700   27.2322 C.3     1  UNL1        0.0001
     26 C           7.2860   -8.0283   26.2679 C.3     1  UNL1        0.0016
     27 C           7.5642   -5.5761   26.7342 C.3     1  UNL1        0.0016
     28 C           8.0129   -4.2736   27.3277 C.3     1  UNL1        0.0180
     29 C           8.8904   -5.0152   28.2919 C.3     1  UNL1        0.0016
     30 C           0.9347    0.0604   19.9574 C.3     1  UNL1        0.0460
     31 O           1.6920    2.1662   21.2775 O.co2   1  UNL1       -0.5492
     32 C           0.5972    1.3218   20.6957 C.2     1  UNL1        0.0507
     33 O          -0.8351    1.7387   20.8523 O.co2   1  UNL1       -0.5492
@<TRIPOS>UNITY_ATOM_ATTR
31 1
charge -1
@<TRIPOS>BOND
     1    31    32   ar
     2    32    33   ar
     3    32    30    1
     4    30     1    1
     5     1     2    1
     6     2     3    1
     7     3     4    1
     8     4     5    1
     9     5     6    1
    10     6     7   am
    11     7     8    2
    12     7     9   am
    13     9    20    1
    14    20    21    1
    15    21    22    1
    16    22    23    1
    17    23    24    1
    18    24    25    1
    19    25    26    1
    20    25    27    1
    21    27    28    1
    22    28    29    1
    23     6    10    1
    24    10    11    1
    25     3    12    1
    26    12    13   ar
    27    13    14    1
    28    13    15   ar
    29    15    16   ar
    30    16    17   ar
    31    17    18   ar
    32    18     1    1
    33    11     3    1
    34    18    12   ar
    35    28    20    1
    36    26    21    1
    37    29    23    1
    38     9    19    1
@<TRIPOS>MOLECULE
*****
 33 38 0 0 0
SMALL
GASTEIGER

@<TRIPOS>ATOM
      1 C           3.6706   -2.6820   20.0357 C.3     1  UNL1        0.0279
      2 C           2.5386   -1.7148   19.8536 C.3     1  UNL1        0.0089
      3 C           2.3949   -0.9254   21.1210 C.3     1  UNL1        0.0227
      4 C           1.4087   -0.5517   20.0544 C.3     1  UNL1        0.0257
      5 C           0.3992    0.5275   20.3113 C.3     1  UNL1        0.0953
      6 N           0.3758    1.2331   21.6348 N.am    1  UNL1       -0.2642
      7 C          -0.6338    2.3124   21.8916 C.2     1  UNL1        0.3039
      8 O          -0.6571    3.0179   23.2151 O.2     1  UNL1       -0.2526
      9 N          -1.6200    2.6861   20.8250 N.am    1  UNL1       -0.2904
     10 C           1.3620    0.8594   22.7014 C.3     1  UNL1        0.0953
     11 C           2.3716   -0.2198   22.4445 C.3     1  UNL1        0.0257
     12 C           3.4381   -1.4048   22.0864 C.ar    1  UNL1       -0.0204
     13 C           3.7720   -0.9930   23.4897 C.ar    1  UNL1        0.0303
     14 BR          2.9836    0.0926   24.1604 Br      1  UNL1       -0.0493
     15 C           4.8942   -1.6668   24.2222 C.ar    1  UNL1        0.0064
     16 C           5.6826   -2.7525   23.5514 C.ar    1  UNL1        0.0002
     17 C           5.3487   -3.1643   22.1482 C.ar    1  UNL1       -0.0045
     18 C           4.2265   -2.4904   21.4157 C.ar    1  UNL1       -0.0256
     19 H          -1.6046    2.2230   19.9563 H       1  UNL1        0.1509
     20 C          -2.6296    3.7654   21.0818 C.3     1  UNL1        0.0729
     21 C          -3.8998    3.4456   21.8126 C.3     1  UNL1        0.0180
     22 C          -3.6391    4.8446   21.3387 C.3     1  UNL1        0.0016
     23 C          -4.6486    5.9239   21.5955 C.3     1  UNL1        0.0001
     24 C          -5.9190    5.6041   22.3263 C.3     1  UNL1        0.0000
     25 C          -6.1797    4.2050   22.8003 C.3     1  UNL1        0.0001
     26 C          -5.1701    3.1258   22.5434 C.3     1  UNL1        0.0016
     27 C          -3.2528    4.1721   21.3034 C.3     1  UNL1        0.0016
     28 C          -2.3688    5.1644   20.6079 C.3     1  UNL1        0.0180
     29 C          -3.3784    6.2437   20.8647 C.3     1  UNL1        0.0016
     30 C           4.1606   -3.6678   19.0168 C.3     1  UNL1        0.0460
     31 O           5.0928   -6.0590   18.6129 O.co2   1  UNL1       -0.5492
     32 C           4.1521   -5.1351   19.3282 C.2     1  UNL1        0.0507
     33 O           3.2031   -5.6784   20.3548 O.co2   1  UNL1       -0.5492
@<TRIPOS>UNITY_ATOM_ATTR
31 1
charge -1
@<TRIPOS>BOND
     1    31    32   ar
     2    32    33   ar
     3    32    30    1
     4    30     1    1
     5     1     2    1
     6     2     3    1
     7     3     4    1
     8     4     5    1
     9     5     6    1
    10     6     7   am
    11     7     8    2
    12     7     9   am
    13     9    20    1
    14    20    21    1
    15    21    22    1
    16    22    23    1
    17    23    24    1
    18    24    25    1
    19    25    26    1
    20    25    27    1
    21    27    28    1
    22    28    29    1
    23     6    10    1
    24    10    11    1
    25     3    12    1
    26    12    13   ar
    27    13    14    1
    28    13    15   ar
    29    15    16   ar
    30    16    17   ar
    31    17    18   ar
    32    18     1    1
    33    11     3    1
    34    18    12   ar
    35    28    20    1
    36    26    21    1
    37    29    23    1
    38     9    19    1
@<TRIPOS>MOLECULE
*****
 33 38 0 0 0
SMALL
GASTEIGER

@<TRIPOS>ATOM
      1 C           3.7867   -2.2304   19.3792 C.3     1  UNL1        0.0279
      2 C           2.4928   -1.5990   19.8005 C.3     1  UNL1        0.0089
      3 C           2.5381   -0.1494   19.4175 C.3     1  UNL1        0.0227
      4 C           1.2635   -0.5629   20.0915 C.3     1  UNL1        0.0257
      5 C           0.1776    0.4451   20.3254 C.3     1  UNL1        0.0953
      6 N           0.3664    1.8666   19.8853 N.am    1  UNL1       -0.2642
      7 C          -0.7196    2.8747   20.1192 C.2     1  UNL1        0.3039
      8 O          -0.5308    4.2962   19.6790 O.2     1  UNL1       -0.2526
      9 N          -1.9942    2.4612   20.7932 N.am    1  UNL1       -0.2904
     10 C           1.6410    2.2801   19.2112 C.3     1  UNL1        0.0953
     11 C           2.7268    1.2721   18.9774 C.3     1  UNL1        0.0257
     12 C           3.8600    0.1151   18.7596 C.ar    1  UNL1       -0.0204
     13 C           4.4606    1.3610   18.1790 C.ar    1  UNL1        0.0303
     14 BR          3.6889    2.6470   18.2027 Br      1  UNL1       -0.0493
     15 C           5.8329    1.3208   17.5747 C.ar    1  UNL1        0.0064
     16 C           6.6046    0.0346   17.5511 C.ar    1  UNL1        0.0002
     17 C           6.0039   -1.2111   18.1317 C.ar    1  UNL1       -0.0045
     18 C           4.6316   -1.1709   18.7359 C.ar    1  UNL1       -0.0256
     19 H          -2.1181    1.5282   21.0821 H       1  UNL1        0.1509
     20 C          -3.0801    3.4692   21.0271 C.3     1  UNL1        0.0729
     21 C          -4.3020    3.4710   20.1570 C.3     1  UNL1        0.0180
     22 C          -4.1660    4.4773   21.2610 C.3     1  UNL1        0.0016
     23 C          -5.2519    5.4853   21.4950 C.3     1  UNL1        0.0001
     24 C          -6.4738    5.4870   20.6248 C.3     1  UNL1        0.0000
     25 C          -6.6097    4.4807   19.5208 C.3     1  UNL1        0.0001
     26 C          -5.5238    3.4727   19.2869 C.3     1  UNL1        0.0016
     27 C          -3.7281    3.8956   20.9914 C.3     1  UNL1        0.0016
     28 C          -2.9442    4.4755   22.1311 C.3     1  UNL1        0.0180
     29 C          -4.0301    5.4835   22.3651 C.3     1  UNL1        0.0016
     30 C           4.1686   -3.6686   19.5681 C.3     1  UNL1        0.0460
     31 O           4.5406   -4.2086   22.0821 O.co2   1  UNL1       -0.5492
     32 C           5.0824   -4.0607   20.6912 C.2     1  UNL1        0.0507
     33 O           6.5379   -4.3048   20.4234 O.co2   1  UNL1       -0.5492
@<TRIPOS>UNITY_ATOM_ATTR
31 1
charge -1
@<TRIPOS>BOND
     1    31    32   ar
     2    32    33   ar
     3    32    30    1
     4    30     1    1
     5     1     2    1
     6     2     3    1
     7     3     4    1
     8     4     5    1
     9     5     6    1
    10     6     7   am
    11     7     8    2
    12     7     9   am
    13     9    20    1
    14    20    21    1
    15    21    22    1
    16    22    23    1
    17    23    24    1
    18    24    25    1
    19    25    26    1
    20    25    27    1
    21    27    28    1
    22    28    29    1
    23     6    10    1
    24    10    11    1
    25     3    12    1
    26    12    13   ar
    27    13    14    1
    28    13    15   ar
    29    15    16   ar
    30    16    17   ar
    31    17    18   ar
    32    18     1    1
    33    11     3    1
    34    18    12   ar
    35    28    20    1
    36    26    21    1
    37    29    23    1
    38     9    19    1
@<TRIPOS>MOLECULE
*****
 33 38 0 0 0
SMALL
GASTEIGER

@<TRIPOS>ATOM
      1 C           7.9465   -4.7425   29.1527 C.3     1  UNL1        0.0279
      2 C           7.3415   -3.9419   28.0377 C.3     1  UNL1        0.0089
      3 C           7.4393   -4.7522   26.7791 C.3     1  UNL1        0.0227
      4 C           6.7893   -3.4131   26.5937 C.3     1  UNL1        0.0257
      5 C           6.3065   -2.9954   25.2364 C.3     1  UNL1        0.0953
      6 N           6.4736   -3.9168   24.0645 N.am    1  UNL1       -0.2642
      7 C           5.9906   -3.4990   22.7072 C.2     1  UNL1        0.3039
      8 O           6.1577   -4.4203   21.5353 O.2     1  UNL1       -0.2526
      9 N           5.3407   -2.1599   22.5217 N.am    1  UNL1       -0.2904
     10 C           7.1235   -5.2558   24.2500 C.3     1  UNL1        0.0953
     11 C           7.6064   -5.6735   25.6073 C.3     1  UNL1        0.0257
     12 C           8.1048   -6.0536   27.1163 C.ar    1  UNL1       -0.0204
     13 C           8.4658   -7.2432   26.2770 C.ar    1  UNL1        0.0303
     14 BR          8.1523   -7.2492   24.8102 Br      1  UNL1       -0.0493
     15 C           9.1403   -8.4269   26.9046 C.ar    1  UNL1        0.0064
     16 C           9.4538   -8.4209   28.3716 C.ar    1  UNL1        0.0002
     17 C           9.0928   -7.2313   29.2107 C.ar    1  UNL1       -0.0045
     18 C           8.4183   -6.0476   28.5831 C.ar    1  UNL1       -0.0256
     19 H           5.2310   -1.5552   23.2908 H       1  UNL1        0.1509
     20 C           4.8578   -1.7422   21.1644 C.3     1  UNL1        0.0729
     21 C           5.8441   -1.3388   20.1087 C.3     1  UNL1        0.0180
     22 C           4.3748   -1.3244   19.8071 C.3     1  UNL1        0.0016
     23 C           3.8919   -0.9067   18.4498 C.3     1  UNL1        0.0001
     24 C           4.8783   -0.5033   17.3941 C.3     1  UNL1        0.0000
     25 C           6.3476   -0.5177   17.6958 C.3     1  UNL1        0.0001
     26 C           6.8305   -0.9355   19.0531 C.3     1  UNL1        0.0016
     27 C           4.8062   -1.5032   20.4274 C.3     1  UNL1        0.0016
     28 C           3.3885   -1.7277   20.8627 C.3     1  UNL1        0.0180
     29 C           2.9056   -1.3100   19.5054 C.3     1  UNL1        0.0016
     30 C           8.0599   -4.3134   30.5855 C.3     1  UNL1        0.0460
     31 O           6.2785   -3.7575   32.3932 O.co2   1  UNL1       -0.5492
     32 C           7.0402   -4.7677   31.5874 C.2     1  UNL1        0.0507
     33 O           6.7822   -6.2323   31.7835 O.co2   1  UNL1       -0.5492
@<TRIPOS>UNITY_ATOM_ATTR
31 1
charge -1
@<TRIPOS>BOND
     1    31    32   ar
     2    32    33   ar
     3    32    30    1
     4    30     1    1
     5     1     2    1
     6     2     3    1
     7     3     4    1
     8     4     5    1
     9     5     6    1
    10     6     7   am
    11     7     8    2
    12     7     9   am
    13     9    20    1
    14    20    21    1
    15    21    22    1
    16    22    23    1
    17    23    24    1
    18    24    25    1
    19    25    26    1
    20    25    27    1
    21    27    28    1
    22    28    29    1
    23     6    10    1
    24    10    11    1
    25     3    12    1
    26    12    13   ar
    27    13    14    1
    28    13    15   ar
    29    15    16   ar
    30    16    17   ar
    31    17    18   ar
    32    18     1    1
    33    11     3    1
    34    18    12   ar
    35    28    20    1
    36    26    21    1
    37    29    23    1
    38     9    19    1
@<TRIPOS>MOLECULE
*****
 33 38 0 0 0
SMALL
GASTEIGER

@<TRIPOS>ATOM
      1 C           3.7203   -0.3794   18.7060 C.3     1  UNL1        0.0279
      2 C           2.3227   -0.1374   19.1944 C.3     1  UNL1        0.0089
      3 C           2.0346    1.3292   19.0671 C.3     1  UNL1        0.0227
      4 C           0.8950    0.5297   19.6258 C.3     1  UNL1        0.0257
      5 C          -0.3874    1.2120   19.9998 C.3     1  UNL1        0.0953
      6 N          -0.5302    2.6938   19.8152 N.am    1  UNL1       -0.2642
      7 C          -1.8126    3.3761   20.1893 C.2     1  UNL1        0.3039
      8 O          -1.9554    4.8578   20.0047 O.2     1  UNL1       -0.2526
      9 N          -2.9522    2.5766   20.7480 N.am    1  UNL1       -0.2904
     10 C           0.6095    3.4932   19.2566 C.3     1  UNL1        0.0953
     11 C           1.8918    2.8109   18.8825 C.3     1  UNL1        0.0257
     12 C           3.2541    1.9936   18.5001 C.ar    1  UNL1       -0.0204
     13 C           3.5504    3.4237   18.1581 C.ar    1  UNL1        0.0303
     14 BR          2.5086    4.4796   18.3812 Br      1  UNL1       -0.0493
     15 C           4.8885    3.7980   17.5930 C.ar    1  UNL1        0.0064
     16 C           5.9303    2.7420   17.3698 C.ar    1  UNL1        0.0002
     17 C           5.6339    1.3120   17.7118 C.ar    1  UNL1       -0.0045
     18 C           4.2958    0.9377   18.2769 C.ar    1  UNL1       -0.0256
     19 H          -2.8585    1.6041   20.8691 H       1  UNL1        0.1509
     20 C          -4.2347    3.2589   21.1220 C.3     1  UNL1        0.0729
     21 C          -4.6037    3.4222   22.5667 C.3     1  UNL1        0.0180
     22 C          -5.5171    3.9412   21.4961 C.3     1  UNL1        0.0016
     23 C          -6.7995    4.6235   21.8701 C.3     1  UNL1        0.0001
     24 C          -7.1685    4.7867   23.3148 C.3     1  UNL1        0.0000
     25 C          -6.2551    4.2677   24.3855 C.3     1  UNL1        0.0001
     26 C          -4.9727    3.5854   24.0114 C.3     1  UNL1        0.0016
     27 C          -4.8338    3.5726   21.5036 C.3     1  UNL1        0.0016
     28 C          -5.1481    3.7779   20.0514 C.3     1  UNL1        0.0180
     29 C          -6.4305    4.4602   20.4254 C.3     1  UNL1        0.0016
     30 C           4.4195   -1.7055   18.6556 C.3     1  UNL1        0.0460
     31 O           3.2597   -4.0035   19.0081 O.co2   1  UNL1       -0.5492
     32 C           3.9871   -2.8163   19.5662 C.2     1  UNL1        0.0507
     33 O           4.2823   -2.7399   21.0349 O.co2   1  UNL1       -0.5492
@<TRIPOS>UNITY_ATOM_ATTR
31 1
charge -1
@<TRIPOS>BOND
     1    31    32   ar
     2    32    33   ar
     3    32    30    1
     4    30     1    1
     5     1     2    1
     6     2     3    1
     7     3     4    1
     8     4     5    1
     9     5     6    1
    10     6     7   am
    11     7     8    2
    12     7     9   am
    13     9    20    1
    14    20    21    1
    15    21    22    1
    16    22    23    1
    17    23    24    1
    18    24    25    1
    19    25    26    1
    20    25    27    1
    21    27    28    1
    22    28    29    1
    23     6    10    1
    24    10    11    1
    25     3    12    1
    26    12    13   ar
    27    13    14    1
    28    13    15   ar
    29    15    16   ar
    30    16    17   ar
    31    17    18   ar
    32    18     1    1
    33    11     3    1
    34    18    12   ar
    35    28    20    1
    36    26    21    1
    37    29    23    1
    38     9    19    1
@<TRIPOS>MOLECULE
*****
 33 38 0 0 0
SMALL
GASTEIGER

@<TRIPOS>ATOM
      1 C           3.5327   -1.9036   19.8583 C.3     1  UNL1        0.0279
      2 C           4.2252   -2.3075   21.1262 C.3     1  UNL1        0.0089
      3 C           3.6425   -1.5021   22.2495 C.3     1  UNL1        0.0227
      4 C           4.7176   -2.4567   22.6770 C.3     1  UNL1        0.0257
      5 C           5.1173   -2.5386   24.1204 C.3     1  UNL1        0.0953
      6 N           4.4418   -1.6658   25.1363 N.am    1  UNL1       -0.2642
      7 C           4.8416   -1.7477   26.5798 C.2     1  UNL1        0.3039
      8 O           4.1661   -0.8750   27.5958 O.2     1  UNL1       -0.2526
      9 N           5.9167   -2.7024   27.0073 N.am    1  UNL1       -0.2904
     10 C           3.3667   -0.7112   24.7088 C.3     1  UNL1        0.0953
     11 C           2.9670   -0.6293   23.2654 C.3     1  UNL1        0.0257
     12 C           2.5898   -0.6004   21.6758 C.ar    1  UNL1       -0.0204
     13 C           1.6843    0.4146   22.3083 C.ar    1  UNL1        0.0303
     14 BR          1.7521    0.6627   23.7860 Br      1  UNL1       -0.0493
     15 C           0.7110    1.1814   21.4629 C.ar    1  UNL1        0.0064
     16 C           0.6432    0.9332   19.9851 C.ar    1  UNL1        0.0002
     17 C           1.5487   -0.0817   19.3527 C.ar    1  UNL1       -0.0045
     18 C           2.5220   -0.8485   20.1981 C.ar    1  UNL1       -0.0256
     19 H           6.3600   -3.2751   26.3405 H       1  UNL1        0.1509
     20 C           6.3164   -2.7843   28.4508 C.3     1  UNL1        0.0729
     21 C           6.5005   -4.1223   29.1033 C.3     1  UNL1        0.0180
     22 C           6.7161   -2.8661   29.8942 C.3     1  UNL1        0.0016
     23 C           7.1158   -2.9480   31.3376 C.3     1  UNL1        0.0001
     24 C           7.2999   -4.2861   31.9902 C.3     1  UNL1        0.0000
     25 C           7.0842   -5.5422   31.1993 C.3     1  UNL1        0.0001
     26 C           6.6845   -5.4603   29.7558 C.3     1  UNL1        0.0016
     27 C           6.5138   -3.0258   29.1618 C.3     1  UNL1        0.0016
     28 C           6.5321   -1.5281   29.2417 C.3     1  UNL1        0.0180
     29 C           6.9318   -1.6100   30.6851 C.3     1  UNL1        0.0016
     30 C           3.8034   -2.4574   18.4909 C.3     1  UNL1        0.0460
     31 O           6.0390   -1.4470   17.6357 O.co2   1  UNL1       -0.5492
     32 C           4.5588   -1.6389   17.4862 C.2     1  UNL1        0.0507
     33 O           3.8341   -1.0123   16.3321 O.co2   1  UNL1       -0.5492
@<TRIPOS>UNITY_ATOM_ATTR
31 1
charge -1
@<TRIPOS>BOND
     1    31    32   ar
     2    32    33   ar
     3    32    30    1
     4    30     1    1
     5     1     2    1
     6     2     3    1
     7     3     4    1
     8     4     5    1
     9     5     6    1
    10     6     7   am
    11     7     8    2
    12     7     9   am
    13     9    20    1
    14    20    21    1
    15    21    22    1
    16    22    23    1
    17    23    24    1
    18    24    25    1
    19    25    26    1
    20    25    27    1
    21    27    28    1
    22    28    29    1
    23     6    10    1
    24    10    11    1
    25     3    12    1
    26    12    13   ar
    27    13    14    1
    28    13    15   ar
    29    15    16   ar
    30    16    17   ar
    31    17    18   ar
    32    18     1    1
    33    11     3    1
    34    18    12   ar
    35    28    20    1
    36    26    21    1
    37    29    23    1
    38     9    19    1
@<TRIPOS>MOLECULE
*****
 33 38 0 0 0
SMALL
GASTEIGER

@<TRIPOS>ATOM
      1 C           1.1053    1.5962   23.8064 C.3     1  UNL1        0.0279
      2 C           2.1311    0.6270   24.3150 C.3     1  UNL1        0.0089
      3 C           2.5589   -0.2396   23.1678 C.3     1  UNL1        0.0227
      4 C           3.2433   -0.5607   24.4633 C.3     1  UNL1        0.0257
      5 C           4.2548   -1.6667   24.5231 C.3     1  UNL1        0.0953
      6 N           4.5820   -2.4515   23.2874 N.am    1  UNL1       -0.2642
      7 C           5.5936   -3.5575   23.3473 C.2     1  UNL1        0.3039
      8 O           5.9209   -4.3422   22.1116 O.2     1  UNL1       -0.2526
      9 N           6.2780   -3.8786   24.6428 N.am    1  UNL1       -0.2904
     10 C           3.8977   -2.1303   21.9919 C.3     1  UNL1        0.0953
     11 C           2.8861   -1.0244   21.9320 C.3     1  UNL1        0.0257
     12 C           1.7974    0.1939   21.9502 C.ar    1  UNL1       -0.0204
     13 C           1.8061   -0.2978   20.5332 C.ar    1  UNL1        0.0303
     14 BR          2.7044   -1.4324   20.1385 Br      1  UNL1       -0.0493
     15 C           0.9164    0.3449   19.5108 C.ar    1  UNL1        0.0064
     16 C           0.0180    1.4795   19.9055 C.ar    1  UNL1        0.0002
     17 C           0.0094    1.9712   21.3225 C.ar    1  UNL1       -0.0045
     18 C           0.8991    1.3285   22.3449 C.ar    1  UNL1       -0.0256
     19 H           6.0632   -3.3635   25.4539 H       1  UNL1        0.1509
     20 C           7.2896   -4.9846   24.7027 C.3     1  UNL1        0.0729
     21 C           7.1698   -6.0549   25.7467 C.3     1  UNL1        0.0180
     22 C           8.3012   -6.0905   24.7625 C.3     1  UNL1        0.0016
     23 C           9.3128   -7.1964   24.8224 C.3     1  UNL1        0.0001
     24 C           9.1930   -8.2668   25.8664 C.3     1  UNL1        0.0000
     25 C           8.0616   -8.2312   26.8506 C.3     1  UNL1        0.0001
     26 C           7.0500   -7.1252   26.7908 C.3     1  UNL1        0.0016
     27 C           7.6986   -5.6176   24.8895 C.3     1  UNL1        0.0016
     28 C           8.4210   -5.0202   23.7185 C.3     1  UNL1        0.0180
     29 C           9.4326   -6.1261   23.7783 C.3     1  UNL1        0.0016
     30 C           0.4081    2.6482   24.6170 C.3     1  UNL1        0.0460
     31 O          -2.0874    2.9091   25.2911 O.co2   1  UNL1       -0.5492
     32 C          -0.7451    2.2731   25.4999 C.2     1  UNL1        0.0507
     33 O          -0.5559    1.2619   26.5915 O.co2   1  UNL1       -0.5492
@<TRIPOS>UNITY_ATOM_ATTR
31 1
charge -1
@<TRIPOS>BOND
     1    31    32   ar
     2    32    33   ar
     3    32    30    1
     4    30     1    1
     5     1     2    1
     6     2     3    1
     7     3     4    1
     8     4     5    1
     9     5     6    1
    10     6     7   am
    11     7     8    2
    12     7     9   am
    13     9    20    1
    14    20    21    1
    15    21    22    1
    16    22    23    1
    17    23    24    1
    18    24    25    1
    19    25    26    1
    20    25    27    1
    21    27    28    1
    22    28    29    1
    23     6    10    1
    24    10    11    1
    25     3    12    1
    26    12    13   ar
    27    13    14    1
    28    13    15   ar
    29    15    16   ar
    30    16    17   ar
    31    17    18   ar
    32    18     1    1
    33    11     3    1
    34    18    12   ar
    35    28    20    1
    36    26    21    1
    37    29    23    1
    38     9    19    1
@<TRIPOS>MOLECULE
*****
 33 38 0 0 0
SMALL
GASTEIGER

@<TRIPOS>ATOM
      1 C          -3.9631    3.9381   25.1959 C.3     1  UNL1        0.0279
      2 C          -2.6335    3.6013   24.5885 C.3     1  UNL1        0.0089
      3 C          -2.8079    3.5320   23.1003 C.3     1  UNL1        0.0227
      4 C          -1.4081    3.2573   23.5640 C.3     1  UNL1        0.0257
      5 C          -0.3338    2.9483   22.5638 C.3     1  UNL1        0.0953
      6 N          -0.6594    2.9140   21.1000 N.am    1  UNL1       -0.2642
      7 C           0.4150    2.6050   20.0998 C.2     1  UNL1        0.3039
      8 O           0.0895    2.5707   18.6359 O.2     1  UNL1       -0.2526
      9 N           1.8148    2.3303   20.5635 N.am    1  UNL1       -0.2904
     10 C          -2.0592    3.1887   20.6363 C.3     1  UNL1        0.0953
     11 C          -3.1334    3.4977   21.6364 C.3     1  UNL1        0.0257
     12 C          -4.2454    3.8259   22.7879 C.ar    1  UNL1       -0.0204
     13 C          -4.9963    3.8974   21.4914 C.ar    1  UNL1        0.0303
     14 BR         -4.2824    3.6464   20.1963 Br      1  UNL1       -0.0493
     15 C          -6.4612    4.2199   21.4900 C.ar    1  UNL1        0.0064
     16 C          -7.1752    4.4709   22.7852 C.ar    1  UNL1        0.0002
     17 C          -6.4242    4.3994   24.0816 C.ar    1  UNL1       -0.0045
     18 C          -4.9593    4.0769   24.0830 C.ar    1  UNL1       -0.0256
     19 H           2.0285    2.3528   21.5242 H       1  UNL1        0.1509
     20 C           2.8892    2.0213   19.5633 C.3     1  UNL1        0.0729
     21 C           3.0874    0.6130   19.0864 C.3     1  UNL1        0.0180
     22 C           3.9635    1.7123   18.5631 C.3     1  UNL1        0.0016
     23 C           5.0379    1.4034   17.5630 C.3     1  UNL1        0.0001
     24 C           5.2361   -0.0050   17.0861 C.3     1  UNL1        0.0000
     25 C           4.3599   -1.1043   17.6094 C.3     1  UNL1        0.0001
     26 C           3.2856   -0.7953   18.6096 C.3     1  UNL1        0.0016
     27 C           3.3740    1.6728   19.0668 C.3     1  UNL1        0.0016
     28 C           3.7654    3.1206   19.0400 C.3     1  UNL1        0.0180
     29 C           4.8397    2.8116   18.0399 C.3     1  UNL1        0.0016
     30 C          -4.2468    4.1065   26.6592 C.3     1  UNL1        0.0460
     31 O          -3.5889    6.5750   27.1324 O.co2   1  UNL1       -0.5492
     32 C          -4.5903    5.4606   27.2055 C.2     1  UNL1        0.0507
     33 O          -5.9352    5.7002   27.8250 O.co2   1  UNL1       -0.5492
@<TRIPOS>UNITY_ATOM_ATTR
31 1
charge -1
@<TRIPOS>BOND
     1    31    32   ar
     2    32    33   ar
     3    32    30    1
     4    30     1    1
     5     1     2    1
     6     2     3    1
     7     3     4    1
     8     4     5    1
     9     5     6    1
    10     6     7   am
    11     7     8    2
    12     7     9   am
    13     9    20    1
    14    20    21    1
    15    21    22    1
    16    22    23    1
    17    23    24    1
    18    24    25    1
    19    25    26    1
    20    25    27    1
    21    27    28    1
    22    28    29    1
    23     6    10    1
    24    10    11    1
    25     3    12    1
    26    12    13   ar
    27    13    14    1
    28    13    15   ar
    29    15    16   ar
    30    16    17   ar
    31    17    18   ar
    32    18     1    1
    33    11     3    1
    34    18    12   ar
    35    28    20    1
    36    26    21    1
    37    29    23    1
    38     9    19    1
@<TRIPOS>MOLECULE
*****
 33 38 0 0 0
SMALL
GASTEIGER

@<TRIPOS>ATOM
      1 C          -0.8171    1.9216   26.9937 C.3     1  UNL1        0.0279
      2 C           0.1648    1.4642   25.9559 C.3     1  UNL1        0.0089
      3 C          -0.2083    2.1034   24.6512 C.3     1  UNL1        0.0227
      4 C           0.9972    1.2144   24.5724 C.3     1  UNL1        0.0257
      5 C           1.7111    1.0330   23.2657 C.3     1  UNL1        0.0953
      6 N           1.2195    1.7406   22.0379 N.am    1  UNL1       -0.2642
      7 C           1.9334    1.5592   20.7312 C.2     1  UNL1        0.3039
      8 O           1.4418    2.2668   19.5034 O.2     1  UNL1       -0.2526
      9 N           3.1390    0.6702   20.6524 N.am    1  UNL1       -0.2904
     10 C           0.0139    2.6296   22.1167 C.3     1  UNL1        0.0953
     11 C          -0.7000    2.8110   23.4234 C.3     1  UNL1        0.0257
     12 C          -1.4208    2.9558   24.8826 C.ar    1  UNL1       -0.0204
     13 C          -2.2308    3.8198   23.9621 C.ar    1  UNL1        0.0303
     14 BR         -1.8546    3.9321   22.5144 Br      1  UNL1       -0.0493
     15 C          -3.4171    4.5714   24.4892 C.ar    1  UNL1        0.0064
     16 C          -3.7932    4.4590   25.9370 C.ar    1  UNL1        0.0002
     17 C          -2.9832    3.5951   26.8574 C.ar    1  UNL1       -0.0045
     18 C          -1.7970    2.8435   26.3303 C.ar    1  UNL1       -0.0256
     19 H           3.4617    0.2058   21.4582 H       1  UNL1        0.1509
     20 C           3.8530    0.4888   19.3456 C.3     1  UNL1        0.0729
     21 C           5.0579    1.3234   19.0272 C.3     1  UNL1        0.0180
     22 C           4.5669    0.3074   18.0390 C.3     1  UNL1        0.0016
     23 C           5.2808    0.1259   16.7324 C.3     1  UNL1        0.0001
     24 C           6.4858    0.9606   16.4138 C.3     1  UNL1        0.0000
     25 C           6.9769    1.9766   17.4020 C.3     1  UNL1        0.0001
     26 C           6.2629    2.1580   18.7087 C.3     1  UNL1        0.0016
     27 C           4.3411    0.5412   18.7441 C.3     1  UNL1        0.0016
     28 C           3.3619   -0.5273   18.3575 C.3     1  UNL1        0.0180
     29 C           4.0758   -0.7087   17.0508 C.3     1  UNL1        0.0016
     30 C          -0.8187    1.5266   28.4407 C.3     1  UNL1        0.0460
     31 O          -1.6596   -0.9142   28.7329 O.co2   1  UNL1       -0.5492
     32 C          -0.5597    0.1011   28.8293 C.2     1  UNL1        0.0507
     33 O           0.7992   -0.3090   29.3141 O.co2   1  UNL1       -0.5492
@<TRIPOS>UNITY_ATOM_ATTR
31 1
charge -1
@<TRIPOS>BOND
     1    31    32   ar
     2    32    33   ar
     3    32    30    1
     4    30     1    1
     5     1     2    1
     6     2     3    1
     7     3     4    1
     8     4     5    1
     9     5     6    1
    10     6     7   am
    11     7     8    2
    12     7     9   am
    13     9    20    1
    14    20    21    1
    15    21    22    1
    16    22    23    1
    17    23    24    1
    18    24    25    1
    19    25    26    1
    20    25    27    1
    21    27    28    1
    22    28    29    1
    23     6    10    1
    24    10    11    1
    25     3    12    1
    26    12    13   ar
    27    13    14    1
    28    13    15   ar
    29    15    16   ar
    30    16    17   ar
    31    17    18   ar
    32    18     1    1
    33    11     3    1
    34    18    12   ar
    35    28    20    1
    36    26    21    1
    37    29    23    1
    38     9    19    1
