@<TRIPOS>MOLECULE
*****
 24 26 0 0 0
SMALL
GASTEIGER

@<TRIPOS>ATOM
      1 C          -8.6037  -16.6500   23.4979 C.3     1  UNL1        0.0847
      2 N          -7.9480  -16.0969   24.7285 N.3     1  UNL1       -0.2676
      3 C          -6.4830  -15.7747   24.7173 C.3     1  UNL1        0.0896
      4 C          -5.8273  -15.2216   25.9477 C.3     1  UNL1        0.0862
      5 N          -6.6365  -14.9908   27.1894 N.3     1  UNL1       -0.2951
      6 C          -8.1015  -15.3130   27.2007 C.3     1  UNL1        0.0862
      7 C          -8.7572  -15.8661   25.9702 C.3     1  UNL1        0.0896
      8 H          -6.5512  -14.0001   27.4165 H       1  UNL1        0.1233
      9 C         -10.0232  -17.1310   23.5563 C.ar    1  UNL1       -0.0075
     10 C         -10.3798  -18.3144   24.4063 C.ar    1  UNL1       -0.0030
     11 C         -11.7994  -18.7954   24.4646 C.ar    1  UNL1       -0.0003
     12 C         -12.8624  -18.0930   23.6730 C.ar    1  UNL1       -0.0000
     13 C         -12.5059  -16.9097   22.8231 C.ar    1  UNL1       -0.0003
     14 C         -11.0863  -16.4286   22.7647 C.ar    1  UNL1       -0.0030
     15 C          -7.8398  -16.7220   22.2090 C.3     1  UNL1        0.0499
     16 C          -7.9843  -18.8094   20.6688 C.ar    1  UNL1        0.1346
     17 C          -7.4243  -20.1200   20.2012 C.ar    1  UNL1        0.0366
     18 C          -6.1598  -20.6538   20.8061 C.ar    1  UNL1        0.0031
     19 C          -5.4552  -19.8771   21.8786 C.ar    1  UNL1       -0.0001
     20 C          -6.0152  -18.5666   22.3463 C.ar    1  UNL1       -0.0012
     21 C          -7.2797  -18.0327   21.7414 C.ar    1  UNL1        0.0135
     22 O          -9.2489  -18.2755   20.0640 O.3     1  UNL1       -0.4758
     23 C         -10.9377  -19.9672   21.0818 C.3     1  UNL1        0.0512
     24 C         -10.4432  -19.1701   19.9113 C.3     1  UNL1        0.2055
@<TRIPOS>BOND
     1    23    24    1
     2    24    22    1
     3    22    16    1
     4    16    17   ar
     5    17    18   ar
     6    18    19   ar
     7    19    20   ar
     8    20    21   ar
     9    21    15    1
    10     1    15    1
    11     1     9    1
    12     9    10   ar
    13    10    11   ar
    14    11    12   ar
    15    12    13   ar
    16    13    14   ar
    17     1     2    1
    18     2     3    1
    19     3     4    1
    20     4     5    1
    21     5     6    1
    22     6     7    1
    23    21    16   ar
    24    14     9   ar
    25     7     2    1
    26     5     8    1
@<TRIPOS>MOLECULE
*****
 24 26 0 0 0
SMALL
GASTEIGER

@<TRIPOS>ATOM
      1 C          -8.7055  -17.1222   22.4834 C.3     1  UNL1        0.0847
      2 N          -7.9838  -18.1964   21.7248 N.3     1  UNL1       -0.2676
      3 C          -8.5937  -18.7767   20.4834 C.3     1  UNL1        0.0896
      4 C          -7.8721  -19.8509   19.7248 C.3     1  UNL1        0.0862
      5 N          -6.5406  -20.3447   20.2078 N.3     1  UNL1       -0.2951
      6 C          -5.9307  -19.7643   21.4493 C.3     1  UNL1        0.0862
      7 C          -6.6523  -18.6902   22.2078 C.3     1  UNL1        0.0896
      8 H          -5.8754  -20.1857   19.4510 H       1  UNL1        0.1233
      9 C         -10.1574  -17.2890   22.8214 C.ar    1  UNL1       -0.0075
     10 C         -10.5866  -18.3641   23.7752 C.ar    1  UNL1       -0.0030
     11 C         -12.0386  -18.5309   24.1133 C.ar    1  UNL1       -0.0003
     12 C         -13.0611  -17.6225   23.4975 C.ar    1  UNL1       -0.0000
     13 C         -12.6318  -16.5474   22.5437 C.ar    1  UNL1       -0.0003
     14 C         -11.1800  -16.3806   22.2056 C.ar    1  UNL1       -0.0030
     15 C          -7.9753  -15.8812   22.9039 C.3     1  UNL1        0.0499
     16 C          -6.0767  -15.6915   24.6672 C.ar    1  UNL1        0.1346
     17 C          -5.6393  -15.5252   26.0924 C.ar    1  UNL1        0.0366
     18 C          -6.6631  -15.3824   27.1793 C.ar    1  UNL1        0.0031
     19 C          -8.1242  -15.4058   26.8411 C.ar    1  UNL1       -0.0001
     20 C          -8.5617  -15.5721   25.4160 C.ar    1  UNL1       -0.0012
     21 C          -7.5379  -15.7149   24.3291 C.ar    1  UNL1        0.0135
     22 O          -5.0529  -15.8344   23.5802 O.3     1  UNL1       -0.4758
     23 C          -3.0007  -17.0688   22.5732 C.3     1  UNL1        0.0512
     24 C          -4.0720  -16.9685   23.6182 C.3     1  UNL1        0.2055
@<TRIPOS>BOND
     1    23    24    1
     2    24    22    1
     3    22    16    1
     4    16    17   ar
     5    17    18   ar
     6    18    19   ar
     7    19    20   ar
     8    20    21   ar
     9    21    15    1
    10     1    15    1
    11     1     9    1
    12     9    10   ar
    13    10    11   ar
    14    11    12   ar
    15    12    13   ar
    16    13    14   ar
    17     1     2    1
    18     2     3    1
    19     3     4    1
    20     4     5    1
    21     5     6    1
    22     6     7    1
    23    21    16   ar
    24    14     9   ar
    25     7     2    1
    26     5     8    1
@<TRIPOS>MOLECULE
*****
 24 26 0 0 0
SMALL
GASTEIGER

@<TRIPOS>ATOM
      1 C          -8.6170  -16.7013   23.5039 C.3     1  UNL1        0.0847
      2 N         -10.0426  -17.1654   23.5547 N.3     1  UNL1       -0.2676
      3 C         -11.0938  -16.4473   22.7615 C.3     1  UNL1        0.0896
      4 C         -12.5193  -16.9114   22.8122 C.3     1  UNL1        0.0862
      5 N         -12.8935  -18.0936   23.6561 N.3     1  UNL1       -0.2951
      6 C         -11.8422  -18.8118   24.4493 C.3     1  UNL1        0.0862
      7 C         -10.4168  -18.3477   24.3985 C.3     1  UNL1        0.0896
      8 H         -13.3114  -18.7819   23.0299 H       1  UNL1        0.1233
      9 C          -7.9489  -16.1935   24.7472 C.ar    1  UNL1       -0.0075
     10 C          -8.7131  -16.1287   26.0363 C.ar    1  UNL1       -0.0030
     11 C          -8.0449  -15.6209   27.2796 C.ar    1  UNL1       -0.0003
     12 C          -6.6125  -15.1779   27.2337 C.ar    1  UNL1       -0.0000
     13 C          -5.8484  -15.2427   25.9446 C.ar    1  UNL1       -0.0003
     14 C          -6.5165  -15.7505   24.7013 C.ar    1  UNL1       -0.0030
     15 C          -7.8597  -16.7449   22.2099 C.3     1  UNL1        0.0499
     16 C          -7.9267  -18.8217   20.6502 C.ar    1  UNL1        0.1346
     17 C          -7.3237  -20.1111   20.1773 C.ar    1  UNL1        0.0366
     18 C          -6.0504  -20.6132   20.7911 C.ar    1  UNL1        0.0031
     19 C          -5.3803  -19.8258   21.8778 C.ar    1  UNL1       -0.0001
     20 C          -5.9833  -18.5364   22.3507 C.ar    1  UNL1       -0.0012
     21 C          -7.2566  -18.0344   21.7369 C.ar    1  UNL1        0.0135
     22 O          -9.2000  -18.3197   20.0365 O.3     1  UNL1       -0.4758
     23 C         -11.0172  -19.8969   21.0163 C.3     1  UNL1        0.0512
     24 C         -10.3546  -19.2554   19.8333 C.3     1  UNL1        0.2055
@<TRIPOS>BOND
     1    23    24    1
     2    24    22    1
     3    22    16    1
     4    16    17   ar
     5    17    18   ar
     6    18    19   ar
     7    19    20   ar
     8    20    21   ar
     9    21    15    1
    10     1    15    1
    11     1     9    1
    12     9    10   ar
    13    10    11   ar
    14    11    12   ar
    15    12    13   ar
    16    13    14   ar
    17     1     2    1
    18     2     3    1
    19     3     4    1
    20     4     5    1
    21     5     6    1
    22     6     7    1
    23    21    16   ar
    24    14     9   ar
    25     7     2    1
    26     5     8    1
@<TRIPOS>MOLECULE
*****
 24 26 0 0 0
SMALL
GASTEIGER

@<TRIPOS>ATOM
      1 C          -7.3170  -17.9589   22.1276 C.3     1  UNL1        0.0847
      2 N          -6.0109  -18.5980   21.7592 N.3     1  UNL1       -0.2676
      3 C          -5.8638  -19.2975   20.4404 C.3     1  UNL1        0.0896
      4 C          -4.5577  -19.9365   20.0720 C.3     1  UNL1        0.0862
      5 N          -3.3988  -19.8761   21.0223 N.3     1  UNL1       -0.2951
      6 C          -3.5459  -19.1766   22.3410 C.3     1  UNL1        0.0862
      7 C          -4.8519  -18.5376   22.7095 C.3     1  UNL1        0.0896
      8 H          -2.6359  -19.4140   20.5274 H       1  UNL1        0.1233
      9 C          -8.5853  -18.7576   22.0701 C.ar    1  UNL1       -0.0075
     10 C          -8.9984  -19.5947   23.2444 C.ar    1  UNL1       -0.0030
     11 C         -10.2668  -20.3934   23.1869 C.ar    1  UNL1       -0.0003
     12 C         -11.1221  -20.3551   21.9552 C.ar    1  UNL1       -0.0000
     13 C         -10.7090  -19.5181   20.7810 C.ar    1  UNL1       -0.0003
     14 C          -9.4407  -18.7194   20.8384 C.ar    1  UNL1       -0.0030
     15 C          -7.3547  -16.5211   22.5534 C.3     1  UNL1        0.0499
     16 C          -8.4308  -16.2889   24.9068 C.ar    1  UNL1        0.1346
     17 C          -8.3137  -15.9336   26.3594 C.ar    1  UNL1        0.0366
     18 C          -7.0035  -15.4554   26.9112 C.ar    1  UNL1        0.0031
     19 C          -5.8104  -15.3323   26.0105 C.ar    1  UNL1       -0.0001
     20 C          -5.9274  -15.6876   24.5579 C.ar    1  UNL1       -0.0012
     21 C          -7.2376  -16.1659   24.0061 C.ar    1  UNL1        0.0135
     22 O          -9.7410  -16.7672   24.3549 O.3     1  UNL1       -0.4758
     23 C         -11.7212  -16.4545   22.7023 C.3     1  UNL1        0.0512
     24 C         -10.5112  -15.9057   23.3984 C.3     1  UNL1        0.2055
@<TRIPOS>BOND
     1    23    24    1
     2    24    22    1
     3    22    16    1
     4    16    17   ar
     5    17    18   ar
     6    18    19   ar
     7    19    20   ar
     8    20    21   ar
     9    21    15    1
    10     1    15    1
    11     1     9    1
    12     9    10   ar
    13    10    11   ar
    14    11    12   ar
    15    12    13   ar
    16    13    14   ar
    17     1     2    1
    18     2     3    1
    19     3     4    1
    20     4     5    1
    21     5     6    1
    22     6     7    1
    23    21    16   ar
    24    14     9   ar
    25     7     2    1
    26     5     8    1
@<TRIPOS>MOLECULE
*****
 24 26 0 0 0
SMALL
GASTEIGER

@<TRIPOS>ATOM
      1 C          -8.8107  -17.5385   23.6312 C.3     1  UNL1        0.0847
      2 N          -8.0718  -16.6281   24.5669 N.3     1  UNL1       -0.2676
      3 C          -8.6318  -16.3362   25.9274 C.3     1  UNL1        0.0896
      4 C          -7.8930  -15.4259   26.8631 C.3     1  UNL1        0.0862
      5 N          -6.5942  -14.8075   26.4381 N.3     1  UNL1       -0.2951
      6 C          -6.0341  -15.0995   25.0776 C.3     1  UNL1        0.0862
      7 C          -6.7730  -16.0098   24.1419 C.3     1  UNL1        0.0896
      8 H          -5.8915  -15.1038   27.1156 H       1  UNL1        0.1233
      9 C         -10.3062  -17.4668   23.5401 C.ar    1  UNL1       -0.0075
     10 C         -10.9566  -16.4052   22.7035 C.ar    1  UNL1       -0.0030
     11 C         -12.4522  -16.3336   22.6125 C.ar    1  UNL1       -0.0003
     12 C         -13.2972  -17.3236   23.3579 C.ar    1  UNL1       -0.0000
     13 C         -12.6468  -18.3852   24.1945 C.ar    1  UNL1       -0.0003
     14 C         -11.1513  -18.4569   24.2856 C.ar    1  UNL1       -0.0030
     15 C          -8.0540  -18.5204   22.7867 C.3     1  UNL1        0.0499
     16 C          -7.8181  -18.9869   20.2417 C.ar    1  UNL1        0.1346
     17 C          -8.4054  -19.4746   18.9505 C.ar    1  UNL1        0.0366
     18 C          -9.8159  -19.9836   18.9130 C.ar    1  UNL1        0.0031
     19 C         -10.6391  -20.0049   20.1668 C.ar    1  UNL1       -0.0001
     20 C         -10.0518  -19.5172   21.4580 C.ar    1  UNL1       -0.0012
     21 C          -8.6413  -19.0082   21.4954 C.ar    1  UNL1        0.0135
     22 O          -6.4076  -18.4778   20.2792 O.3     1  UNL1       -0.4758
     23 C          -5.5169  -20.9173   20.3534 C.3     1  UNL1        0.0512
     24 C          -5.2667  -19.4402   20.4277 C.3     1  UNL1        0.2055
@<TRIPOS>BOND
     1    23    24    1
     2    24    22    1
     3    22    16    1
     4    16    17   ar
     5    17    18   ar
     6    18    19   ar
     7    19    20   ar
     8    20    21   ar
     9    21    15    1
    10     1    15    1
    11     1     9    1
    12     9    10   ar
    13    10    11   ar
    14    11    12   ar
    15    12    13   ar
    16    13    14   ar
    17     1     2    1
    18     2     3    1
    19     3     4    1
    20     4     5    1
    21     5     6    1
    22     6     7    1
    23    21    16   ar
    24    14     9   ar
    25     7     2    1
    26     5     8    1
@<TRIPOS>MOLECULE
*****
 24 26 0 0 0
SMALL
GASTEIGER

@<TRIPOS>ATOM
      1 C          -8.4995  -16.7065   23.5602 C.3     1  UNL1        0.0847
      2 N          -9.9146  -17.2041   23.5653 N.3     1  UNL1       -0.2676
      3 C         -10.9791  -16.4451   22.8298 C.3     1  UNL1        0.0896
      4 C         -12.3942  -16.9426   22.8349 C.3     1  UNL1        0.0862
      5 N         -12.7447  -18.1990   23.5755 N.3     1  UNL1       -0.2951
      6 C         -11.6803  -18.9579   24.3110 C.3     1  UNL1        0.0862
      7 C         -10.2652  -18.4605   24.3059 C.3     1  UNL1        0.0896
      8 H         -13.1456  -18.8415   22.8922 H       1  UNL1        0.1233
      9 C          -7.8808  -16.1920   24.8261 C.ar    1  UNL1       -0.0075
     10 C          -8.6507  -16.2444   26.1124 C.ar    1  UNL1       -0.0030
     11 C          -8.0319  -15.7298   27.3783 C.ar    1  UNL1       -0.0003
     12 C          -6.6434  -15.1629   27.3578 C.ar    1  UNL1       -0.0000
     13 C          -5.8735  -15.1105   26.0715 C.ar    1  UNL1       -0.0003
     14 C          -6.4922  -15.6250   24.8057 C.ar    1  UNL1       -0.0030
     15 C          -7.7031  -16.7235   22.2892 C.3     1  UNL1        0.0499
     16 C          -5.8643  -18.5372   22.0073 C.ar    1  UNL1        0.1346
     17 C          -5.4047  -19.8420   21.4277 C.ar    1  UNL1        0.0366
     18 C          -6.3244  -20.6382   20.5502 C.ar    1  UNL1        0.0031
     19 C          -7.7038  -20.1296   20.2523 C.ar    1  UNL1       -0.0001
     20 C          -8.1633  -18.8247   20.8320 C.ar    1  UNL1       -0.0012
     21 C          -7.2436  -18.0285   21.7095 C.ar    1  UNL1        0.0135
     22 O          -4.9445  -17.7409   22.8849 O.3     1  UNL1       -0.4758
     23 C          -2.5466  -16.8924   22.3552 C.3     1  UNL1        0.0512
     24 C          -3.4645  -17.9790   22.8317 C.3     1  UNL1        0.2055
@<TRIPOS>BOND
     1    23    24    1
     2    24    22    1
     3    22    16    1
     4    16    17   ar
     5    17    18   ar
     6    18    19   ar
     7    19    20   ar
     8    20    21   ar
     9    21    15    1
    10     1    15    1
    11     1     9    1
    12     9    10   ar
    13    10    11   ar
    14    11    12   ar
    15    12    13   ar
    16    13    14   ar
    17     1     2    1
    18     2     3    1
    19     3     4    1
    20     4     5    1
    21     5     6    1
    22     6     7    1
    23    21    16   ar
    24    14     9   ar
    25     7     2    1
    26     5     8    1
@<TRIPOS>MOLECULE
*****
 24 26 0 0 0
SMALL
GASTEIGER

@<TRIPOS>ATOM
      1 C          -5.8939  -18.6907   22.1969 C.3     1  UNL1        0.0847
      2 N          -4.5798  -18.7604   21.4767 N.3     1  UNL1       -0.2676
      3 C          -4.5493  -18.9193   19.9855 C.3     1  UNL1        0.0896
      4 C          -3.2354  -18.9889   19.2654 C.3     1  UNL1        0.0862
      5 N          -1.9519  -18.8996   20.0365 N.3     1  UNL1       -0.2951
      6 C          -1.9824  -18.7407   21.5278 C.3     1  UNL1        0.0862
      7 C          -3.2964  -18.6711   22.2479 C.3     1  UNL1        0.0896
      8 H          -1.4406  -18.0988   19.6655 H       1  UNL1        0.1233
      9 C          -6.2903  -17.4345   22.9143 C.ar    1  UNL1       -0.0075
     10 C          -7.6671  -16.8683   22.7301 C.ar    1  UNL1       -0.0030
     11 C          -8.0635  -15.6120   23.4476 C.ar    1  UNL1       -0.0003
     12 C          -7.0832  -14.9221   24.3492 C.ar    1  UNL1       -0.0000
     13 C          -5.7065  -15.4884   24.5334 C.ar    1  UNL1       -0.0003
     14 C          -5.3100  -16.7446   23.8160 C.ar    1  UNL1       -0.0030
     15 C          -6.8115  -19.8774   22.1995 C.3     1  UNL1        0.0499
     16 C          -9.3889  -20.0421   22.4820 C.ar    1  UNL1        0.1346
     17 C         -10.7690  -19.9243   21.9063 C.ar    1  UNL1        0.0366
     18 C         -10.9517  -19.5239   20.4723 C.ar    1  UNL1        0.0031
     19 C          -9.7544  -19.2413   19.6141 C.ar    1  UNL1       -0.0001
     20 C          -8.3743  -19.3592   20.1898 C.ar    1  UNL1       -0.0012
     21 C          -8.1916  -19.7595   21.6237 C.ar    1  UNL1        0.0135
     22 O          -9.2061  -20.4425   23.9160 O.3     1  UNL1       -0.4758
     23 C          -9.9331  -18.3185   25.2238 C.3     1  UNL1        0.0512
     24 C         -10.0344  -19.7961   24.9865 C.3     1  UNL1        0.2055
@<TRIPOS>BOND
     1    23    24    1
     2    24    22    1
     3    22    16    1
     4    16    17   ar
     5    17    18   ar
     6    18    19   ar
     7    19    20   ar
     8    20    21   ar
     9    21    15    1
    10     1    15    1
    11     1     9    1
    12     9    10   ar
    13    10    11   ar
    14    11    12   ar
    15    12    13   ar
    16    13    14   ar
    17     1     2    1
    18     2     3    1
    19     3     4    1
    20     4     5    1
    21     5     6    1
    22     6     7    1
    23    21    16   ar
    24    14     9   ar
    25     7     2    1
    26     5     8    1
@<TRIPOS>MOLECULE
*****
 24 26 0 0 0
SMALL
GASTEIGER

@<TRIPOS>ATOM
      1 C          -6.7854  -19.0037   20.6924 C.3     1  UNL1        0.0847
      2 N          -5.2918  -18.9859   20.8297 N.3     1  UNL1       -0.2676
      3 C          -4.4287  -18.8289   19.6130 C.3     1  UNL1        0.0896
      4 C          -2.9351  -18.8111   19.7501 C.3     1  UNL1        0.0862
      5 N          -2.3046  -18.9504   21.1040 N.3     1  UNL1       -0.2951
      6 C          -3.1677  -19.1074   22.3207 C.3     1  UNL1        0.0862
      7 C          -4.6613  -19.1252   22.1836 C.3     1  UNL1        0.0896
      8 H          -1.7367  -18.1161   21.2516 H       1  UNL1        0.1233
      9 C          -7.4390  -19.9513   19.7308 C.ar    1  UNL1       -0.0075
     10 C          -6.8479  -21.3101   19.4981 C.ar    1  UNL1       -0.0030
     11 C          -7.5015  -22.2577   18.5363 C.ar    1  UNL1       -0.0003
     12 C          -8.7462  -21.8464   17.8073 C.ar    1  UNL1       -0.0000
     13 C          -9.3374  -20.4876   18.0400 C.ar    1  UNL1       -0.0003
     14 C          -8.6838  -19.5400   19.0017 C.ar    1  UNL1       -0.0030
     15 C          -7.6254  -18.0739   21.5169 C.3     1  UNL1        0.0499
     16 C          -9.8619  -17.8217   22.8149 C.ar    1  UNL1        0.1346
     17 C         -10.8824  -18.3756   23.7644 C.ar    1  UNL1        0.0366
     18 C         -10.6869  -19.7359   24.3657 C.ar    1  UNL1        0.0031
     19 C          -9.4709  -20.5421   24.0174 C.ar    1  UNL1       -0.0001
     20 C          -8.4504  -19.9881   23.0678 C.ar    1  UNL1       -0.0012
     21 C          -8.6459  -18.6279   22.4666 C.ar    1  UNL1        0.0135
     22 O         -10.0574  -16.4614   22.2136 O.3     1  UNL1       -0.4758
     23 C         -11.4027  -17.3107   20.1596 C.3     1  UNL1        0.0512
     24 C         -11.1197  -16.2453   21.1768 C.3     1  UNL1        0.2055
@<TRIPOS>BOND
     1    23    24    1
     2    24    22    1
     3    22    16    1
     4    16    17   ar
     5    17    18   ar
     6    18    19   ar
     7    19    20   ar
     8    20    21   ar
     9    21    15    1
    10     1    15    1
    11     1     9    1
    12     9    10   ar
    13    10    11   ar
    14    11    12   ar
    15    12    13   ar
    16    13    14   ar
    17     1     2    1
    18     2     3    1
    19     3     4    1
    20     4     5    1
    21     5     6    1
    22     6     7    1
    23    21    16   ar
    24    14     9   ar
    25     7     2    1
    26     5     8    1
@<TRIPOS>MOLECULE
*****
 24 26 0 0 0
SMALL
GASTEIGER

@<TRIPOS>ATOM
      1 C          -6.8082  -17.8471   22.3350 C.3     1  UNL1        0.0847
      2 N          -5.6150  -18.5717   21.7860 N.3     1  UNL1       -0.2676
      3 C          -5.6044  -19.0231   20.3556 C.3     1  UNL1        0.0896
      4 C          -4.4113  -19.7476   19.8066 C.3     1  UNL1        0.0862
      5 N          -3.2288  -20.0207   20.6880 N.3     1  UNL1       -0.2951
      6 C          -3.2393  -19.5693   22.1185 C.3     1  UNL1        0.0862
      7 C          -4.4325  -18.8448   22.6674 C.3     1  UNL1        0.0896
      8 H          -2.4233  -19.5782   20.2456 H       1  UNL1        0.1233
      9 C          -6.6428  -16.8846   23.4735 C.ar    1  UNL1       -0.0075
     10 C          -7.8426  -16.4261   24.2483 C.ar    1  UNL1       -0.0030
     11 C          -7.6771  -15.4635   25.3869 C.ar    1  UNL1       -0.0003
     12 C          -6.3119  -14.9595   25.7505 C.ar    1  UNL1       -0.0000
     13 C          -5.1122  -15.4181   24.9757 C.ar    1  UNL1       -0.0003
     14 C          -5.2776  -16.3805   23.8372 C.ar    1  UNL1       -0.0030
     15 C          -8.1668  -18.0851   21.7455 C.3     1  UNL1        0.0499
     16 C         -10.5552  -17.7037   22.6942 C.ar    1  UNL1        0.1346
     17 C         -11.6886  -18.1409   23.5742 C.ar    1  UNL1        0.0366
     18 C         -11.5668  -19.3967   24.3855 C.ar    1  UNL1        0.0031
     19 C         -10.3118  -20.2153   24.3167 C.ar    1  UNL1       -0.0001
     20 C          -9.1785  -19.7781   23.4367 C.ar    1  UNL1       -0.0012
     21 C          -9.3002  -18.5223   22.6255 C.ar    1  UNL1        0.0135
     22 O         -10.6769  -16.4479   21.8829 O.3     1  UNL1       -0.4758
     23 C         -11.6477  -15.8843   19.5399 C.3     1  UNL1        0.0512
     24 C         -11.8578  -16.2503   20.9793 C.3     1  UNL1        0.2055
@<TRIPOS>BOND
     1    23    24    1
     2    24    22    1
     3    22    16    1
     4    16    17   ar
     5    17    18   ar
     6    18    19   ar
     7    19    20   ar
     8    20    21   ar
     9    21    15    1
    10     1    15    1
    11     1     9    1
    12     9    10   ar
    13    10    11   ar
    14    11    12   ar
    15    12    13   ar
    16    13    14   ar
    17     1     2    1
    18     2     3    1
    19     3     4    1
    20     4     5    1
    21     5     6    1
    22     6     7    1
    23    21    16   ar
    24    14     9   ar
    25     7     2    1
    26     5     8    1
