@<TRIPOS>MOLECULE
*****
 28 31 0 0 0
SMALL
GASTEIGER

@<TRIPOS>ATOM
      1 C          -6.4043  -18.7451   21.1661 C.3     1  UNL1        0.1910
      2 C          -7.7267  -19.0556   20.5299 C.3     1  UNL1        0.0423
      3 C          -9.0006  -18.6722   21.2227 C.3     1  UNL1        0.0404
      4 C         -10.3231  -18.9826   20.5866 C.3     1  UNL1        0.0569
      5 C         -10.3716  -19.6765   19.2576 C.3     1  UNL1        0.0122
      6 S         -11.5971  -18.5992   21.2794 S.3     1  UNL1       -0.0816
      7 C         -11.5486  -17.9054   22.6084 C.2     1  UNL1        0.1482
      8 N         -12.8226  -17.5220   23.3012 N.pl3   1  UNL1       -0.3380
      9 N         -10.2261  -17.5949   23.2446 N.2     1  UNL1       -0.2484
     10 C          -8.9521  -17.9783   22.5517 C.3     1  UNL1        0.1352
     11 C          -7.6297  -17.6679   23.1879 C.3     1  UNL1        0.1692
     12 O          -6.3558  -18.0513   22.4951 O.3     1  UNL1       -0.3446
     13 H         -13.6906  -17.7257   22.8837 H       1  UNL1        0.1442
     14 H         -12.7908  -17.0666   24.1735 H       1  UNL1        0.1442
     15 C          -8.9036  -17.2845   23.8807 C.ar    1  UNL1        0.0278
     16 C          -8.5649  -15.8250   23.9529 C.ar    1  UNL1        0.0021
     17 C          -8.5164  -15.1311   25.2819 C.ar    1  UNL1        0.0295
     18 C          -8.8066  -15.8968   26.5387 C.ar    1  UNL1        0.1424
     19 F          -8.7581  -15.2030   27.8677 F       1  UNL1       -0.2041
     20 C          -9.1453  -17.3563   26.4665 C.ar    1  UNL1        0.0590
     21 C          -9.1938  -18.0501   25.1375 C.ar    1  UNL1        0.1402
     22 F          -9.5324  -19.5096   25.0653 F       1  UNL1       -0.2044
     23 C          -1.6515  -18.4720   18.8817 C.3     1  UNL1        0.0556
     24 C          -2.9457  -19.0030   19.4232 C.ar    1  UNL1        0.0997
     25 C          -3.3939  -20.4341   19.3910 C.ar    1  UNL1        0.1958
     26 O          -4.7440  -20.5117   20.0399 O.2     1  UNL1       -0.4331
     27 C          -5.1302  -19.1285   20.4732 C.ar    1  UNL1        0.2327
     28 N          -4.0188  -18.1961   20.0921 N.ar    1  UNL1       -0.2144
@<TRIPOS>BOND
     1    23    24    1
     2    24    25   ar
     3    25    26   ar
     4    26    27   ar
     5     1    27    1
     6     1     2    1
     7     3     2    1
     8     3     4    1
     9     4     5    1
    10     4     6    1
    11     6     7    1
    12     7     8    1
    13     7     9    2
    14     9    10    1
    15    10    15    1
    16    15    16   ar
    17    16    17   ar
    18    17    18   ar
    19    18    19    1
    20    18    20   ar
    21    20    21   ar
    22    21    22    1
    23    10    11    1
    24    11    12    1
    25    27    28   ar
    26    28    24   ar
    27    12     1    1
    28    10     3    1
    29    21    15   ar
    30     8    13    1
    31     8    14    1
@<TRIPOS>MOLECULE
*****
 28 31 0 0 0
SMALL
GASTEIGER

@<TRIPOS>ATOM
      1 C         -17.8454   -3.5322   20.0583 C.3     1  UNL1        0.1910
      2 C         -16.3523   -3.3983   20.1105 C.3     1  UNL1        0.0423
      3 C         -15.4817   -4.5691   19.7626 C.3     1  UNL1        0.0404
      4 C         -13.9886   -4.4352   19.8148 C.3     1  UNL1        0.0569
      5 C         -13.3661   -3.1304   20.2148 C.3     1  UNL1        0.0122
      6 S         -13.1180   -5.6061   19.4669 S.3     1  UNL1       -0.0816
      7 C         -13.7404   -6.9109   19.0669 C.2     1  UNL1        0.1482
      8 N         -12.8697   -8.0818   18.7190 N.pl3   1  UNL1       -0.3380
      9 N         -15.2335   -7.0448   19.0147 N.2     1  UNL1       -0.2484
     10 C         -16.1042   -5.8739   19.3626 C.3     1  UNL1        0.1352
     11 C         -17.5972   -6.0079   19.3104 C.3     1  UNL1        0.1692
     12 O         -18.4679   -4.8370   19.6583 O.3     1  UNL1       -0.3446
     13 H         -11.8897   -7.9938   18.7532 H       1  UNL1        0.1442
     14 H         -13.2782   -8.9382   18.4564 H       1  UNL1        0.1442
     15 C         -16.7266   -7.1787   18.9626 C.ar    1  UNL1        0.0278
     16 C         -17.0407   -8.2107   20.0050 C.ar    1  UNL1        0.0021
     17 C         -17.6632   -9.5155   19.6050 C.ar    1  UNL1        0.0295
     18 C         -17.9715   -9.7884   18.1625 C.ar    1  UNL1        0.1424
     19 F         -18.5940  -11.0932   17.7625 F       1  UNL1       -0.2041
     20 C         -17.6574   -8.7565   17.1202 C.ar    1  UNL1        0.0590
     21 C         -17.0350   -7.4517   17.5202 C.ar    1  UNL1        0.1402
     22 F         -16.7209   -6.4198   16.4779 F       1  UNL1       -0.2044
     23 C         -19.8750    1.3392   20.2366 C.3     1  UNL1        0.0556
     24 C         -19.6490   -0.1222   20.4882 C.ar    1  UNL1        0.0997
     25 C         -20.4630   -0.9970   21.3950 C.ar    1  UNL1        0.1958
     26 O         -19.8864   -2.3808   21.3443 O.2     1  UNL1       -0.4331
     27 C         -18.7161   -2.3613   20.4062 C.ar    1  UNL1        0.2327
     28 N         -18.5694   -0.9655   19.8771 N.ar    1  UNL1       -0.2144
@<TRIPOS>BOND
     1    23    24    1
     2    24    25   ar
     3    25    26   ar
     4    26    27   ar
     5     1    27    1
     6     1     2    1
     7     3     2    1
     8     3     4    1
     9     4     5    1
    10     4     6    1
    11     6     7    1
    12     7     8    1
    13     7     9    2
    14     9    10    1
    15    10    15    1
    16    15    16   ar
    17    16    17   ar
    18    17    18   ar
    19    18    19    1
    20    18    20   ar
    21    20    21   ar
    22    21    22    1
    23    10    11    1
    24    11    12    1
    25    27    28   ar
    26    28    24   ar
    27    12     1    1
    28    10     3    1
    29    21    15   ar
    30     8    13    1
    31     8    14    1
@<TRIPOS>MOLECULE
*****
 28 31 0 0 0
SMALL
GASTEIGER

@<TRIPOS>ATOM
      1 C           2.2688    0.2006   30.4794 C.3     1  UNL1        0.1910
      2 C           2.2717    0.9739   31.7646 C.3     1  UNL1        0.0423
      3 C           3.3509    0.7382   32.7793 C.3     1  UNL1        0.0404
      4 C           3.3537    1.5116   34.0647 C.3     1  UNL1        0.0569
      5 C           2.2774    2.5206   34.3352 C.3     1  UNL1        0.0122
      6 S           4.4330    1.2758   35.0794 S.3     1  UNL1       -0.0816
      7 C           5.5093    0.2668   34.8088 C.2     1  UNL1        0.1482
      8 N           6.5886    0.0311   35.8236 N.pl3   1  UNL1       -0.3380
      9 N           5.5065   -0.5066   33.5236 N.2     1  UNL1       -0.2484
     10 C           4.4273   -0.2709   32.5088 C.3     1  UNL1        0.1352
     11 C           4.4244   -1.0442   31.2236 C.3     1  UNL1        0.1692
     12 O           3.3452   -0.8085   30.2089 O.3     1  UNL1       -0.3446
     13 H           6.5904    0.5386   36.6672 H       1  UNL1        0.1442
     14 H           7.2951   -0.6312   35.6461 H       1  UNL1        0.1442
     15 C           5.5036   -1.2799   32.2383 C.ar    1  UNL1        0.0278
     16 C           6.7530   -0.8688   31.5170 C.ar    1  UNL1        0.0021
     17 C           7.8294   -1.8779   31.2465 C.ar    1  UNL1        0.0295
     18 C           7.6564   -3.2981   31.6972 C.ar    1  UNL1        0.1424
     19 F           8.7328   -4.3072   31.4267 F       1  UNL1       -0.2041
     20 C           6.4071   -3.7092   32.4185 C.ar    1  UNL1        0.0590
     21 C           5.3307   -2.7001   32.6890 C.ar    1  UNL1        0.1402
     22 F           4.0815   -3.1112   33.4103 F       1  UNL1       -0.2044
     23 C          -0.2197    1.4494   25.9929 C.3     1  UNL1        0.0556
     24 C           0.0457    1.0103   27.4024 C.ar    1  UNL1        0.0997
     25 C          -0.9881    0.5876   28.4037 C.ar    1  UNL1        0.1958
     26 O          -0.2811    0.2329   29.6782 O.2     1  UNL1       -0.4331
     27 C           1.1896    0.4363   29.4646 C.ar    1  UNL1        0.2327
     28 N           1.3916    0.9167   28.0581 N.ar    1  UNL1       -0.2144
@<TRIPOS>BOND
     1    23    24    1
     2    24    25   ar
     3    25    26   ar
     4    26    27   ar
     5     1    27    1
     6     1     2    1
     7     3     2    1
     8     3     4    1
     9     4     5    1
    10     4     6    1
    11     6     7    1
    12     7     8    1
    13     7     9    2
    14     9    10    1
    15    10    15    1
    16    15    16   ar
    17    16    17   ar
    18    17    18   ar
    19    18    19    1
    20    18    20   ar
    21    20    21   ar
    22    21    22    1
    23    10    11    1
    24    11    12    1
    25    27    28   ar
    26    28    24   ar
    27    12     1    1
    28    10     3    1
    29    21    15   ar
    30     8    13    1
    31     8    14    1
@<TRIPOS>MOLECULE
*****
 28 31 0 0 0
SMALL
GASTEIGER

@<TRIPOS>ATOM
      1 C           6.3264   -3.5621   22.6909 C.3     1  UNL1        0.1910
      2 C           7.1784   -3.2347   21.5006 C.3     1  UNL1        0.0423
      3 C           6.6932   -2.2491   20.4793 C.3     1  UNL1        0.0404
      4 C           7.5453   -1.9217   19.2889 C.3     1  UNL1        0.0569
      5 C           8.8825   -2.5800   19.1199 C.3     1  UNL1        0.0122
      6 S           7.0601   -0.9362   18.2676 S.3     1  UNL1       -0.0816
      7 C           5.7228   -0.2779   18.4366 C.2     1  UNL1        0.1482
      8 N           5.2377    0.7077   17.4152 N.pl3   1  UNL1       -0.3380
      9 N           4.8708   -0.6052   19.6269 N.2     1  UNL1       -0.2484
     10 C           5.3560   -1.5909   20.6483 C.3     1  UNL1        0.1352
     11 C           4.5040   -1.9182   21.8386 C.3     1  UNL1        0.1692
     12 O           4.9892   -2.9038   22.8599 O.3     1  UNL1       -0.3446
     13 H           5.7969    0.9226   16.6339 H       1  UNL1        0.1442
     14 H           4.3600    1.1398   17.5260 H       1  UNL1        0.1442
     15 C           4.0188   -0.9326   20.8172 C.ar    1  UNL1        0.0278
     16 C           3.8974    0.3205   21.6327 C.ar    1  UNL1        0.0021
     17 C           2.5602    0.9788   21.8017 C.ar    1  UNL1        0.0295
     18 C           1.3443    0.3838   21.1552 C.ar    1  UNL1        0.1424
     19 F           0.0071    1.0421   21.3242 F       1  UNL1       -0.2041
     20 C           1.4658   -0.8693   20.3398 C.ar    1  UNL1        0.0590
     21 C           2.8030   -1.5275   20.1708 C.ar    1  UNL1        0.1402
     22 F           2.9244   -2.7806   19.3555 F       1  UNL1       -0.2044
     23 C           8.7115   -7.7028   24.9374 C.3     1  UNL1        0.0556
     24 C           7.9079   -6.4510   24.7449 C.ar    1  UNL1        0.0997
     25 C           7.2084   -5.6777   25.8233 C.ar    1  UNL1        0.1958
     26 O           6.5309   -4.5014   25.1851 O.2     1  UNL1       -0.4331
     27 C           6.8116   -4.5477   23.7123 C.ar    1  UNL1        0.2327
     28 N           7.6626   -5.7526   23.4403 N.ar    1  UNL1       -0.2144
@<TRIPOS>BOND
     1    23    24    1
     2    24    25   ar
     3    25    26   ar
     4    26    27   ar
     5     1    27    1
     6     1     2    1
     7     3     2    1
     8     3     4    1
     9     4     5    1
    10     4     6    1
    11     6     7    1
    12     7     8    1
    13     7     9    2
    14     9    10    1
    15    10    15    1
    16    15    16   ar
    17    16    17   ar
    18    17    18   ar
    19    18    19    1
    20    18    20   ar
    21    20    21   ar
    22    21    22    1
    23    10    11    1
    24    11    12    1
    25    27    28   ar
    26    28    24   ar
    27    12     1    1
    28    10     3    1
    29    21    15   ar
    30     8    13    1
    31     8    14    1
@<TRIPOS>MOLECULE
*****
 28 31 0 0 0
SMALL
GASTEIGER

@<TRIPOS>ATOM
      1 C           2.2504    0.0699   30.2656 C.3     1  UNL1        0.1910
      2 C           3.3869   -0.6588   29.6118 C.3     1  UNL1        0.0423
      3 C           4.6382   -0.9466   30.3872 C.3     1  UNL1        0.0404
      4 C           5.7747   -1.6754   29.7334 C.3     1  UNL1        0.0569
      5 C           5.6598   -2.1163   28.3043 C.3     1  UNL1        0.0122
      6 S           7.0261   -1.9631   30.5088 S.3     1  UNL1       -0.0816
      7 C           7.1411   -1.5222   31.9379 C.2     1  UNL1        0.1482
      8 N           8.3925   -1.8100   32.7132 N.pl3   1  UNL1       -0.3380
      9 N           6.0046   -0.7934   32.5916 N.2     1  UNL1       -0.2484
     10 C           4.7532   -0.5056   31.8163 C.3     1  UNL1        0.1352
     11 C           3.6168    0.2231   32.4700 C.3     1  UNL1        0.1692
     12 O           2.3654    0.5109   31.6947 O.3     1  UNL1       -0.3446
     13 H           9.1384   -2.2883   32.2841 H       1  UNL1        0.1442
     14 H           8.4680   -1.5206   33.6512 H       1  UNL1        0.1442
     15 C           4.8681   -0.0646   33.2454 C.ar    1  UNL1        0.0278
     16 C           5.3299    1.3260   33.5663 C.ar    1  UNL1        0.0021
     17 C           5.4449    1.7670   34.9954 C.ar    1  UNL1        0.0295
     18 C           5.0980    0.8173   36.1036 C.ar    1  UNL1        0.1424
     19 F           5.2130    1.2583   37.5327 F       1  UNL1       -0.2041
     20 C           4.6363   -0.5732   35.7826 C.ar    1  UNL1        0.0590
     21 C           4.5213   -1.0142   34.3535 C.ar    1  UNL1        0.1402
     22 F           4.0595   -2.4048   34.0325 F       1  UNL1       -0.2044
     23 C          -1.2379    2.3608   27.0306 C.3     1  UNL1        0.0556
     24 C          -0.6044    1.4107   28.0033 C.ar    1  UNL1        0.0997
     25 C          -1.2491    0.1904   28.5910 C.ar    1  UNL1        0.1958
     26 O          -0.2582   -0.4603   29.5099 O.2     1  UNL1       -0.4331
     27 C           0.9990    0.3577   29.4902 C.ar    1  UNL1        0.2327
     28 N           0.7850    1.5141   28.5591 N.ar    1  UNL1       -0.2144
@<TRIPOS>BOND
     1    23    24    1
     2    24    25   ar
     3    25    26   ar
     4    26    27   ar
     5     1    27    1
     6     1     2    1
     7     3     2    1
     8     3     4    1
     9     4     5    1
    10     4     6    1
    11     6     7    1
    12     7     8    1
    13     7     9    2
    14     9    10    1
    15    10    15    1
    16    15    16   ar
    17    16    17   ar
    18    17    18   ar
    19    18    19    1
    20    18    20   ar
    21    20    21   ar
    22    21    22    1
    23    10    11    1
    24    11    12    1
    25    27    28   ar
    26    28    24   ar
    27    12     1    1
    28    10     3    1
    29    21    15   ar
    30     8    13    1
    31     8    14    1
@<TRIPOS>MOLECULE
*****
 28 31 0 0 0
SMALL
GASTEIGER

@<TRIPOS>ATOM
      1 C           3.1653   -0.3334   23.4396 C.3     1  UNL1        0.1910
      2 C           3.6662   -1.4984   22.6385 C.3     1  UNL1        0.0423
      3 C           3.6709   -1.4315   21.1400 C.3     1  UNL1        0.0404
      4 C           4.1718   -2.5965   20.3387 C.3     1  UNL1        0.0569
      5 C           4.6680   -3.8284   21.0361 C.3     1  UNL1        0.0122
      6 S           4.1766   -2.5296   18.8403 S.3     1  UNL1       -0.0816
      7 C           3.6804   -1.2977   18.1430 C.2     1  UNL1        0.1482
      8 N           3.6851   -1.2308   16.6444 N.pl3   1  UNL1       -0.3380
      9 N           3.1795   -0.1327   18.9441 N.2     1  UNL1       -0.2484
     10 C           3.1747   -0.1996   20.4427 C.3     1  UNL1        0.1352
     11 C           2.6738    0.9654   21.2438 C.3     1  UNL1        0.1692
     12 O           2.6691    0.8985   22.7423 O.3     1  UNL1       -0.3446
     13 H           4.0139   -1.9954   16.1186 H       1  UNL1        0.1442
     14 H           3.3595   -0.4223   16.1867 H       1  UNL1        0.1442
     15 C           2.6786    1.0323   19.7454 C.ar    1  UNL1        0.0278
     16 C           3.6295    2.1474   19.4254 C.ar    1  UNL1        0.0021
     17 C           3.1333    3.3793   18.7281 C.ar    1  UNL1        0.0295
     18 C           1.6862    3.4961   18.3507 C.ar    1  UNL1        0.1424
     19 F           1.1900    4.7280   17.6534 F       1  UNL1       -0.2041
     20 C           0.7353    2.3810   18.6707 C.ar    1  UNL1        0.0590
     21 C           1.2315    1.1491   19.3681 C.ar    1  UNL1        0.1402
     22 F           0.2807    0.0341   19.6881 F       1  UNL1       -0.2044
     23 C           2.3430    0.8598   28.5172 C.3     1  UNL1        0.0556
     24 C           2.7826    0.1481   27.2720 C.ar    1  UNL1        0.0997
     25 C           3.5240   -1.1547   27.2162 C.ar    1  UNL1        0.1958
     26 O           3.7575   -1.4936   25.7738 O.2     1  UNL1       -0.4331
     27 C           3.1605   -0.4003   24.9382 C.ar    1  UNL1        0.2327
     28 N           2.5580    0.6143   25.8641 N.ar    1  UNL1       -0.2144
@<TRIPOS>BOND
     1    23    24    1
     2    24    25   ar
     3    25    26   ar
     4    26    27   ar
     5     1    27    1
     6     1     2    1
     7     3     2    1
     8     3     4    1
     9     4     5    1
    10     4     6    1
    11     6     7    1
    12     7     8    1
    13     7     9    2
    14     9    10    1
    15    10    15    1
    16    15    16   ar
    17    16    17   ar
    18    17    18   ar
    19    18    19    1
    20    18    20   ar
    21    20    21   ar
    22    21    22    1
    23    10    11    1
    24    11    12    1
    25    27    28   ar
    26    28    24   ar
    27    12     1    1
    28    10     3    1
    29    21    15   ar
    30     8    13    1
    31     8    14    1
@<TRIPOS>MOLECULE
*****
 28 31 0 0 0
SMALL
GASTEIGER

@<TRIPOS>ATOM
      1 C           3.5932    0.1171   32.3981 C.3     1  UNL1        0.1910
      2 C           4.5385   -0.6067   31.4857 C.3     1  UNL1        0.0423
      3 C           4.2295   -0.7199   30.0223 C.3     1  UNL1        0.0404
      4 C           5.1749   -1.4437   29.1099 C.3     1  UNL1        0.0569
      5 C           6.4292   -2.0543   29.6610 C.3     1  UNL1        0.0122
      6 S           4.8659   -1.5568   27.6465 S.3     1  UNL1       -0.0816
      7 C           3.6115   -0.9462   27.0954 C.2     1  UNL1        0.1482
      8 N           3.3025   -1.0593   25.6319 N.pl3   1  UNL1       -0.3380
      9 N           2.6662   -0.2224   28.0077 N.2     1  UNL1       -0.2484
     10 C           2.9752   -0.1092   29.4712 C.3     1  UNL1        0.1352
     11 C           2.0298    0.6146   30.3836 C.3     1  UNL1        0.1692
     12 O           2.3388    0.7277   31.8470 O.3     1  UNL1       -0.3446
     13 H           3.9230   -1.5344   25.0331 H       1  UNL1        0.1442
     14 H           2.4792   -0.6586   25.2702 H       1  UNL1        0.1442
     15 C           1.7208    0.5014   28.9202 C.ar    1  UNL1        0.0278
     16 C           0.4440   -0.2859   28.9124 C.ar    1  UNL1        0.0021
     17 C          -0.8103    0.3247   28.3614 C.ar    1  UNL1        0.0295
     18 C          -0.7879    1.7227   27.8180 C.ar    1  UNL1        0.1424
     19 F          -2.0423    2.3334   27.2669 F       1  UNL1       -0.2041
     20 C           0.4888    2.5100   27.8257 C.ar    1  UNL1        0.0590
     21 C           1.7432    1.8993   28.3768 C.ar    1  UNL1        0.1402
     22 F           3.0199    2.6866   28.3845 F       1  UNL1       -0.2044
     23 C           4.0031    2.0032   37.3129 C.3     1  UNL1        0.0556
     24 C           4.0906    1.0972   36.1207 C.ar    1  UNL1        0.0997
     25 C           4.6648   -0.2886   36.1066 C.ar    1  UNL1        0.1958
     26 O           4.5483   -0.8243   34.7104 O.2     1  UNL1       -0.4331
     27 C           3.9022    0.2302   33.8616 C.ar    1  UNL1        0.2327
     28 N           3.6194    1.4178   34.7332 N.ar    1  UNL1       -0.2144
@<TRIPOS>BOND
     1    23    24    1
     2    24    25   ar
     3    25    26   ar
     4    26    27   ar
     5     1    27    1
     6     1     2    1
     7     3     2    1
     8     3     4    1
     9     4     5    1
    10     4     6    1
    11     6     7    1
    12     7     8    1
    13     7     9    2
    14     9    10    1
    15    10    15    1
    16    15    16   ar
    17    16    17   ar
    18    17    18   ar
    19    18    19    1
    20    18    20   ar
    21    20    21   ar
    22    21    22    1
    23    10    11    1
    24    11    12    1
    25    27    28   ar
    26    28    24   ar
    27    12     1    1
    28    10     3    1
    29    21    15   ar
    30     8    13    1
    31     8    14    1
@<TRIPOS>MOLECULE
*****
 28 31 0 0 0
SMALL
GASTEIGER

@<TRIPOS>ATOM
      1 C         -15.9763   -2.5979   19.2595 C.3     1  UNL1        0.1910
      2 C         -14.4769   -2.6264   19.2336 C.3     1  UNL1        0.0423
      3 C         -13.7554   -3.9188   18.9906 C.3     1  UNL1        0.0404
      4 C         -12.2559   -3.9474   18.9648 C.3     1  UNL1        0.0569
      5 C         -11.4778   -2.6834   19.1820 C.3     1  UNL1        0.0122
      6 S         -11.5344   -5.2398   18.7217 S.3     1  UNL1       -0.0816
      7 C         -12.3124   -6.5037   18.5045 C.2     1  UNL1        0.1482
      8 N         -11.5909   -7.7962   18.2614 N.pl3   1  UNL1       -0.3380
      9 N         -13.8119   -6.4752   18.5303 N.2     1  UNL1       -0.2484
     10 C         -14.5334   -5.1827   18.7734 C.3     1  UNL1        0.1352
     11 C         -16.0329   -5.1543   18.7992 C.3     1  UNL1        0.1692
     12 O         -16.7544   -3.8619   19.0423 O.3     1  UNL1       -0.3446
     13 H         -10.6067   -7.8148   18.2445 H       1  UNL1        0.1442
     14 H         -12.1015   -8.6257   18.1189 H       1  UNL1        0.1442
     15 C         -15.3114   -6.4467   18.5562 C.ar    1  UNL1        0.0278
     16 C         -15.7438   -7.2726   19.7314 C.ar    1  UNL1        0.0021
     17 C         -16.5218   -8.5365   19.5141 C.ar    1  UNL1        0.0295
     18 C         -16.8675   -8.9745   18.1217 C.ar    1  UNL1        0.1424
     19 F         -17.6455  -10.2384   17.9045 F       1  UNL1       -0.2041
     20 C         -16.4351   -8.1486   16.9466 C.ar    1  UNL1        0.0590
     21 C         -15.6571   -6.8847   17.1638 C.ar    1  UNL1        0.1402
     22 F         -15.2248   -6.0588   15.9887 F       1  UNL1       -0.2044
     23 C         -17.2778    2.1406   21.1919 C.3     1  UNL1        0.0556
     24 C         -17.2961    0.8726   20.3907 C.ar    1  UNL1        0.0997
     25 C         -18.3204    0.4941   19.3623 C.ar    1  UNL1        0.1958
     26 O         -17.9506   -0.8520   18.8134 O.2     1  UNL1       -0.4331
     27 C         -16.6979   -1.3055   19.5025 C.ar    1  UNL1        0.2327
     28 N         -16.2934   -0.2397   20.4774 N.ar    1  UNL1       -0.2144
@<TRIPOS>BOND
     1    23    24    1
     2    24    25   ar
     3    25    26   ar
     4    26    27   ar
     5     1    27    1
     6     1     2    1
     7     3     2    1
     8     3     4    1
     9     4     5    1
    10     4     6    1
    11     6     7    1
    12     7     8    1
    13     7     9    2
    14     9    10    1
    15    10    15    1
    16    15    16   ar
    17    16    17   ar
    18    17    18   ar
    19    18    19    1
    20    18    20   ar
    21    20    21   ar
    22    21    22    1
    23    10    11    1
    24    11    12    1
    25    27    28   ar
    26    28    24   ar
    27    12     1    1
    28    10     3    1
    29    21    15   ar
    30     8    13    1
    31     8    14    1
@<TRIPOS>MOLECULE
*****
 28 31 0 0 0
SMALL
GASTEIGER

@<TRIPOS>ATOM
      1 C           3.5528   -0.7732   24.6047 C.3     1  UNL1        0.1910
      2 C           4.3975   -1.8968   24.0814 C.3     1  UNL1        0.0423
      3 C           4.4610   -2.1633   22.6067 C.3     1  UNL1        0.0404
      4 C           5.3057   -3.2870   22.0832 C.3     1  UNL1        0.0569
      5 C           6.0870   -4.1440   23.0346 C.3     1  UNL1        0.0122
      6 S           5.3692   -3.5535   20.6085 S.3     1  UNL1       -0.0816
      7 C           4.5879   -2.6965   19.6571 C.2     1  UNL1        0.1482
      8 N           4.6514   -2.9631   18.1823 N.pl3   1  UNL1       -0.3380
      9 N           3.7432   -1.5729   20.1805 N.2     1  UNL1       -0.2484
     10 C           3.6797   -1.3063   21.6553 C.3     1  UNL1        0.1352
     11 C           2.8350   -0.1827   22.1786 C.3     1  UNL1        0.1692
     12 O           2.7715    0.0838   23.6534 O.3     1  UNL1       -0.3446
     13 H           5.2058   -3.7006   17.8388 H       1  UNL1        0.1442
     14 H           4.1386   -2.4006   17.5579 H       1  UNL1        0.1442
     15 C           2.8984   -0.4493   20.7039 C.ar    1  UNL1        0.0278
     16 C           1.4563   -0.7568   20.4286 C.ar    1  UNL1        0.0021
     17 C           0.6750    0.1002   19.4773 C.ar    1  UNL1        0.0295
     18 C           1.3359    1.2648   18.8011 C.ar    1  UNL1        0.1424
     19 F           0.5546    2.1218   17.8498 F       1  UNL1       -0.2041
     20 C           2.7779    1.5723   19.0764 C.ar    1  UNL1        0.0590
     21 C           3.5592    0.7153   20.0278 C.ar    1  UNL1        0.1402
     22 F           5.0013    1.0228   20.3031 F       1  UNL1       -0.2044
     23 C           3.2906    1.7239   29.2499 C.3     1  UNL1        0.0556
     24 C           3.3687    0.6412   28.2147 C.ar    1  UNL1        0.0997
     25 C           3.4144   -0.8339   28.4833 C.ar    1  UNL1        0.1958
     26 O           3.4889   -1.5432   27.1637 O.2     1  UNL1       -0.4331
     27 C           3.4893   -0.5066   26.0795 C.ar    1  UNL1        0.2327
     28 N           3.4150    0.8434   26.7291 N.ar    1  UNL1       -0.2144
@<TRIPOS>BOND
     1    23    24    1
     2    24    25   ar
     3    25    26   ar
     4    26    27   ar
     5     1    27    1
     6     1     2    1
     7     3     2    1
     8     3     4    1
     9     4     5    1
    10     4     6    1
    11     6     7    1
    12     7     8    1
    13     7     9    2
    14     9    10    1
    15    10    15    1
    16    15    16   ar
    17    16    17   ar
    18    17    18   ar
    19    18    19    1
    20    18    20   ar
    21    20    21   ar
    22    21    22    1
    23    10    11    1
    24    11    12    1
    25    27    28   ar
    26    28    24   ar
    27    12     1    1
    28    10     3    1
    29    21    15   ar
    30     8    13    1
    31     8    14    1
