@<TRIPOS>MOLECULE
*****
 37 41 0 0 0
SMALL
GASTEIGER

@<TRIPOS>ATOM
      1 N         -10.6129  -17.0070   21.0667 N.3     1  UNL1       -0.2679
      2 C         -11.3340  -17.5995   22.2411 C.3     1  UNL1        0.0978
      3 C         -12.6867  -17.0811   22.6301 C.3     1  UNL1        0.0224
      4 C         -13.4077  -17.6736   23.8044 C.3     1  UNL1        0.0065
      5 C         -12.7761  -18.7846   24.5897 C.3     1  UNL1        0.0277
      6 C         -11.4234  -19.3030   24.2007 C.ar    1  UNL1       -0.0073
      7 C         -10.7917  -20.4141   24.9860 C.ar    1  UNL1       -0.0015
      8 C          -9.4390  -20.9325   24.5969 C.ar    1  UNL1        0.0203
      9 C          -8.7179  -20.3400   23.4226 C.ar    1  UNL1        0.0985
     10 N          -9.3496  -19.2290   22.6373 N.ar    1  UNL1       -0.2471
     11 C         -10.7023  -18.7105   23.0263 C.ar    1  UNL1        0.0695
     12 C         -10.7105  -17.6595   19.7196 C.3     1  UNL1        0.0725
     13 C         -10.6121  -19.1515   19.6000 C.3     1  UNL1        0.0188
     14 C          -9.3649  -19.7794   19.0523 C.3     1  UNL1        0.0185
     15 C          -8.0199  -19.2989   19.5106 C.3     1  UNL1        0.0686
     16 N          -7.1256  -20.2110   20.2972 N.3     1  UNL1       -0.2985
     17 H          -7.6692  -20.5401   21.0951 H       1  UNL1        0.1232
     18 C          -1.7502  -18.7547   21.6482 C.3     1  UNL1        0.0000
     19 C          -3.2219  -18.6778   21.9281 C.3     1  UNL1        0.0001
     20 C          -2.6999  -17.8180   23.0408 C.3     1  UNL1        0.0000
     21 C          -4.5122  -18.3024   22.5944 C.3     1  UNL1        0.0014
     22 C          -5.8135  -18.8134   22.0507 C.3     1  UNL1        0.0157
     23 C          -5.8244  -19.7000   20.8408 C.3     1  UNL1        0.0540
     24 C          -4.5340  -20.0755   20.1745 C.3     1  UNL1        0.0157
     25 C          -3.2328  -19.5644   20.7182 C.3     1  UNL1        0.0014
     26 C          -9.7943  -15.7621   21.2395 C.3     1  UNL1        0.0886
     27 C          -8.8377  -15.6470   22.3892 C.3     1  UNL1        0.0748
     28 C          -9.2901  -15.9873   23.7783 C.3     1  UNL1        0.0432
     29 C          -8.3335  -15.8722   24.9280 C.ar    1  UNL1       -0.0234
     30 C          -8.7859  -16.2125   26.3170 C.ar    1  UNL1       -0.0045
     31 C          -7.8293  -16.0974   27.4666 C.ar    1  UNL1       -0.0003
     32 C          -6.4203  -15.6421   27.2272 C.ar    1  UNL1       -0.0003
     33 C          -5.9679  -15.3018   25.8381 C.ar    1  UNL1       -0.0032
     34 C          -6.9245  -15.4169   24.6885 C.ar    1  UNL1       -0.0103
     35 C          -6.4721  -15.0766   23.2994 C.3     1  UNL1        0.0953
     36 N          -7.4287  -15.1917   22.1498 N.3     1  UNL1       -0.2934
     37 H          -7.0155  -15.8483   21.4876 H       1  UNL1        0.1236
@<TRIPOS>BOND
     1    18    19    1
     2    19    20    1
     3    19    21    1
     4    21    22    1
     5    22    23    1
     6    23    16    1
     7    16    15    1
     8    15    14    1
     9    14    13    1
    10    13    12    1
    11    12     1    1
    12     1    26    1
    13    27    26    1
    14    27    28    1
    15    28    29    1
    16    29    30   ar
    17    30    31   ar
    18    31    32   ar
    19    32    33   ar
    20    33    34   ar
    21    34    35    1
    22    35    36    1
    23     2     1    1
    24     2     3    1
    25     3     4    1
    26     4     5    1
    27     5     6    1
    28     6     7   ar
    29     7     8   ar
    30     8     9   ar
    31     9    10   ar
    32    10    11   ar
    33    23    24    1
    34    24    25    1
    35    25    19    1
    36    36    27    1
    37    11     2    1
    38    34    29   ar
    39    11     6   ar
    40    16    17    1
    41    36    37    1
@<TRIPOS>MOLECULE
*****
 37 41 0 0 0
SMALL
GASTEIGER

@<TRIPOS>ATOM
      1 N          -9.2919  -18.0105   21.1513 N.3     1  UNL1       -0.2679
      2 C          -9.7540  -18.7570   22.3675 C.3     1  UNL1        0.0978
      3 C          -8.8783  -19.8103   22.9787 C.3     1  UNL1        0.0224
      4 C          -9.3404  -20.5568   24.1949 C.3     1  UNL1        0.0065
      5 C         -10.6782  -20.2500   24.8000 C.3     1  UNL1        0.0277
      6 C         -11.5539  -19.1966   24.1888 C.ar    1  UNL1       -0.0073
      7 C         -12.8918  -18.8898   24.7939 C.ar    1  UNL1       -0.0015
      8 C         -13.7675  -17.8364   24.1827 C.ar    1  UNL1        0.0203
      9 C         -13.3054  -17.0899   22.9665 C.ar    1  UNL1        0.0985
     10 N         -11.9676  -17.3967   22.3614 N.ar    1  UNL1       -0.2471
     11 C         -11.0918  -18.4501   22.9726 C.ar    1  UNL1        0.0695
     12 C          -9.5202  -18.5872   19.7856 C.3     1  UNL1        0.0725
     13 C          -8.6009  -19.6476   19.2560 C.3     1  UNL1        0.0188
     14 C          -7.1667  -19.6839   19.6938 C.3     1  UNL1        0.0185
     15 C          -6.5523  -20.9763   20.1433 C.3     1  UNL1        0.0686
     16 N          -5.0600  -21.1247   20.1796 N.3     1  UNL1       -0.2985
     17 H          -4.8533  -21.8556   20.8604 H       1  UNL1        0.1232
     18 C          -2.1824  -16.6916   22.3953 C.3     1  UNL1        0.0000
     19 C          -2.4733  -17.5970   21.2352 C.3     1  UNL1        0.0001
     20 C          -1.4431  -16.7008   20.6143 C.3     1  UNL1        0.0000
     21 C          -2.4063  -18.1911   19.8596 C.3     1  UNL1        0.0014
     22 C          -3.2686  -19.3670   19.5077 C.3     1  UNL1        0.0157
     23 C          -4.1978  -19.9488   20.5315 C.3     1  UNL1        0.0540
     24 C          -4.2647  -19.3546   21.9072 C.3     1  UNL1        0.0157
     25 C          -3.4024  -18.1788   22.2591 C.3     1  UNL1        0.0014
     26 C          -8.6016  -16.6872   21.3008 C.3     1  UNL1        0.0886
     27 C          -7.9198  -16.3385   22.5906 C.3     1  UNL1        0.0748
     28 C          -8.7348  -16.0644   23.8196 C.3     1  UNL1        0.0432
     29 C          -8.0530  -15.7156   25.1094 C.ar    1  UNL1       -0.0234
     30 C          -8.8681  -15.4415   26.3384 C.ar    1  UNL1       -0.0045
     31 C          -8.1863  -15.0928   27.6282 C.ar    1  UNL1       -0.0003
     32 C          -6.6894  -15.0181   27.6889 C.ar    1  UNL1       -0.0003
     33 C          -5.8743  -15.2922   26.4599 C.ar    1  UNL1       -0.0032
     34 C          -6.5561  -15.6409   25.1702 C.ar    1  UNL1       -0.0103
     35 C          -5.7410  -15.9151   23.9411 C.3     1  UNL1        0.0953
     36 N          -6.4228  -16.2638   22.6514 N.3     1  UNL1       -0.2934
     37 H          -6.0707  -17.1789   22.3702 H       1  UNL1        0.1236
@<TRIPOS>BOND
     1    18    19    1
     2    19    20    1
     3    19    21    1
     4    21    22    1
     5    22    23    1
     6    23    16    1
     7    16    15    1
     8    15    14    1
     9    14    13    1
    10    13    12    1
    11    12     1    1
    12     1    26    1
    13    27    26    1
    14    27    28    1
    15    28    29    1
    16    29    30   ar
    17    30    31   ar
    18    31    32   ar
    19    32    33   ar
    20    33    34   ar
    21    34    35    1
    22    35    36    1
    23     2     1    1
    24     2     3    1
    25     3     4    1
    26     4     5    1
    27     5     6    1
    28     6     7   ar
    29     7     8   ar
    30     8     9   ar
    31     9    10   ar
    32    10    11   ar
    33    23    24    1
    34    24    25    1
    35    25    19    1
    36    36    27    1
    37    11     2    1
    38    34    29   ar
    39    11     6   ar
    40    16    17    1
    41    36    37    1
@<TRIPOS>MOLECULE
*****
 37 41 0 0 0
SMALL
GASTEIGER

@<TRIPOS>ATOM
      1 N          -7.2665  -19.6639   21.6953 N.3     1  UNL1       -0.2679
      2 C          -8.2217  -19.2913   22.7902 C.3     1  UNL1        0.0978
      3 C          -9.1569  -20.3206   23.3522 C.3     1  UNL1        0.0224
      4 C         -10.1121  -19.9479   24.4471 C.3     1  UNL1        0.0065
      5 C         -10.1320  -18.5459   24.9800 C.3     1  UNL1        0.0277
      6 C          -9.1968  -17.5166   24.4180 C.ar    1  UNL1       -0.0073
      7 C          -9.2168  -16.1145   24.9509 C.ar    1  UNL1       -0.0015
      8 C          -8.2816  -15.0852   24.3889 C.ar    1  UNL1        0.0203
      9 C          -7.3264  -15.4579   23.2940 C.ar    1  UNL1        0.0985
     10 N          -7.3064  -16.8599   22.7611 N.ar    1  UNL1       -0.2471
     11 C          -8.2417  -17.8893   23.3231 C.ar    1  UNL1        0.0695
     12 C          -7.6791  -19.5233   20.2601 C.3     1  UNL1        0.0725
     13 C          -7.6723  -20.7210   19.3569 C.3     1  UNL1        0.0188
     14 C          -8.8383  -20.9834   18.4506 C.3     1  UNL1        0.0185
     15 C         -10.0790  -20.1481   18.5637 C.3     1  UNL1        0.0686
     16 N          -9.9754  -18.6968   18.9286 N.3     1  UNL1       -0.2985
     17 H          -8.9921  -18.5127   19.1275 H       1  UNL1        0.1232
     18 C         -13.2647  -17.5489   23.4788 C.3     1  UNL1        0.0000
     19 C         -12.3293  -17.0773   22.4052 C.3     1  UNL1        0.0001
     20 C         -12.5959  -15.7788   23.1070 C.3     1  UNL1        0.0000
     21 C         -11.4865  -16.1549   21.5754 C.3     1  UNL1        0.0014
     22 C         -10.7018  -16.6947   20.4165 C.3     1  UNL1        0.0157
     23 C         -10.7600  -18.1570   20.0875 C.3     1  UNL1        0.0540
     24 C         -11.6029  -19.0795   20.9174 C.3     1  UNL1        0.0157
     25 C         -12.3875  -18.5397   22.0762 C.3     1  UNL1        0.0014
     26 C          -5.8989  -20.1772   22.0357 C.3     1  UNL1        0.0886
     27 C          -4.7004  -19.2925   21.8596 C.3     1  UNL1        0.0748
     28 C          -3.8438  -19.4249   20.6354 C.3     1  UNL1        0.0432
     29 C          -2.6453  -18.5401   20.4593 C.ar    1  UNL1       -0.0234
     30 C          -1.7887  -18.6726   19.2351 C.ar    1  UNL1       -0.0045
     31 C          -0.5903  -17.7878   19.0591 C.ar    1  UNL1       -0.0003
     32 C          -0.2485  -16.7706   20.1072 C.ar    1  UNL1       -0.0003
     33 C          -1.1051  -16.6382   21.3314 C.ar    1  UNL1       -0.0032
     34 C          -2.3035  -17.5230   21.5074 C.ar    1  UNL1       -0.0103
     35 C          -3.1602  -17.3906   22.7316 C.3     1  UNL1        0.0953
     36 N          -4.3586  -18.2753   22.9077 N.3     1  UNL1       -0.2934
     37 H          -5.1678  -17.6607   22.9965 H       1  UNL1        0.1236
@<TRIPOS>BOND
     1    18    19    1
     2    19    20    1
     3    19    21    1
     4    21    22    1
     5    22    23    1
     6    23    16    1
     7    16    15    1
     8    15    14    1
     9    14    13    1
    10    13    12    1
    11    12     1    1
    12     1    26    1
    13    27    26    1
    14    27    28    1
    15    28    29    1
    16    29    30   ar
    17    30    31   ar
    18    31    32   ar
    19    32    33   ar
    20    33    34   ar
    21    34    35    1
    22    35    36    1
    23     2     1    1
    24     2     3    1
    25     3     4    1
    26     4     5    1
    27     5     6    1
    28     6     7   ar
    29     7     8   ar
    30     8     9   ar
    31     9    10   ar
    32    10    11   ar
    33    23    24    1
    34    24    25    1
    35    25    19    1
    36    36    27    1
    37    11     2    1
    38    34    29   ar
    39    11     6   ar
    40    16    17    1
    41    36    37    1
@<TRIPOS>MOLECULE
*****
 37 41 0 0 0
SMALL
GASTEIGER

@<TRIPOS>ATOM
      1 N          -8.9275  -17.9452   21.2169 N.3     1  UNL1       -0.2679
      2 C         -10.3548  -17.4863   21.2638 C.3     1  UNL1        0.0978
      3 C         -10.9061  -16.6368   20.1572 C.3     1  UNL1        0.0224
      4 C         -12.3334  -16.1779   20.2040 C.3     1  UNL1        0.0065
      5 C         -13.2093  -16.5683   21.3574 C.3     1  UNL1        0.0277
      6 C         -12.6580  -17.4178   22.4639 C.ar    1  UNL1       -0.0073
      7 C         -13.5340  -17.8083   23.6173 C.ar    1  UNL1       -0.0015
      8 C         -12.9826  -18.6577   24.7238 C.ar    1  UNL1        0.0203
      9 C         -11.5553  -19.1166   24.6770 C.ar    1  UNL1        0.0985
     10 N         -10.6794  -18.7262   23.5237 N.ar    1  UNL1       -0.2471
     11 C         -11.2307  -17.8767   22.4171 C.ar    1  UNL1        0.0695
     12 C          -8.6131  -19.3991   21.0239 C.3     1  UNL1        0.0725
     13 C          -7.5221  -19.8118   20.0807 C.3     1  UNL1        0.0188
     14 C          -6.5065  -20.8296   20.5079 C.3     1  UNL1        0.0185
     15 C          -5.7850  -20.6670   21.8129 C.3     1  UNL1        0.0686
     16 N          -5.1139  -19.3665   22.1420 N.3     1  UNL1       -0.2985
     17 H          -5.8178  -18.6363   22.0339 H       1  UNL1        0.1232
     18 C          -1.0761  -17.8002   18.3891 C.3     1  UNL1        0.0000
     19 C          -1.5016  -18.0446   19.8065 C.3     1  UNL1        0.0001
     20 C          -0.0825  -17.6140   20.0312 C.3     1  UNL1        0.0000
     21 C          -1.4343  -18.1395   21.3020 C.3     1  UNL1        0.0014
     22 C          -2.6384  -18.5801   22.0805 C.3     1  UNL1        0.0157
     23 C          -3.9098  -18.9259   21.3635 C.3     1  UNL1        0.0540
     24 C          -3.9771  -18.8310   19.8680 C.3     1  UNL1        0.0157
     25 C          -2.7730  -18.3904   19.0895 C.3     1  UNL1        0.0014
     26 C          -7.8145  -16.9503   21.3632 C.3     1  UNL1        0.0886
     27 C          -7.3432  -16.5476   22.7292 C.3     1  UNL1        0.0748
     28 C          -8.3407  -16.2143   23.7987 C.3     1  UNL1        0.0432
     29 C          -7.8693  -15.8116   25.1647 C.ar    1  UNL1       -0.0234
     30 C          -8.8668  -15.4783   26.2342 C.ar    1  UNL1       -0.0045
     31 C          -8.3954  -15.0756   27.6001 C.ar    1  UNL1       -0.0003
     32 C          -6.9266  -15.0062   27.8964 C.ar    1  UNL1       -0.0003
     33 C          -5.9292  -15.3394   26.8268 C.ar    1  UNL1       -0.0032
     34 C          -6.4005  -15.7421   25.4610 C.ar    1  UNL1       -0.0103
     35 C          -5.4031  -16.0754   24.3913 C.3     1  UNL1        0.0953
     36 N          -5.8744  -16.4781   23.0255 N.3     1  UNL1       -0.2934
     37 H          -5.4933  -17.4068   22.8444 H       1  UNL1        0.1236
@<TRIPOS>BOND
     1    18    19    1
     2    19    20    1
     3    19    21    1
     4    21    22    1
     5    22    23    1
     6    23    16    1
     7    16    15    1
     8    15    14    1
     9    14    13    1
    10    13    12    1
    11    12     1    1
    12     1    26    1
    13    27    26    1
    14    27    28    1
    15    28    29    1
    16    29    30   ar
    17    30    31   ar
    18    31    32   ar
    19    32    33   ar
    20    33    34   ar
    21    34    35    1
    22    35    36    1
    23     2     1    1
    24     2     3    1
    25     3     4    1
    26     4     5    1
    27     5     6    1
    28     6     7   ar
    29     7     8   ar
    30     8     9   ar
    31     9    10   ar
    32    10    11   ar
    33    23    24    1
    34    24    25    1
    35    25    19    1
    36    36    27    1
    37    11     2    1
    38    34    29   ar
    39    11     6   ar
    40    16    17    1
    41    36    37    1
@<TRIPOS>MOLECULE
*****
 37 41 0 0 0
SMALL
GASTEIGER

@<TRIPOS>ATOM
      1 N          -5.8066  -18.9574   21.6339 N.3     1  UNL1       -0.2679
      2 C          -4.3819  -18.5751   21.9064 C.3     1  UNL1        0.0978
      3 C          -3.8856  -18.4888   23.3192 C.3     1  UNL1        0.0224
      4 C          -2.4610  -18.1065   23.5917 C.3     1  UNL1        0.0065
      5 C          -1.5327  -17.8104   22.4514 C.3     1  UNL1        0.0277
      6 C          -2.0290  -17.8967   21.0385 C.ar    1  UNL1       -0.0073
      7 C          -1.1006  -17.6006   19.8980 C.ar    1  UNL1       -0.0015
      8 C          -1.5969  -17.6869   18.4852 C.ar    1  UNL1        0.0203
      9 C          -3.0215  -18.0692   18.2127 C.ar    1  UNL1        0.0985
     10 N          -3.9499  -18.3653   19.3531 N.ar    1  UNL1       -0.2471
     11 C          -3.4536  -18.2790   20.7660 C.ar    1  UNL1        0.0695
     12 C          -6.1608  -20.3906   21.3683 C.3     1  UNL1        0.0725
     13 C          -6.2510  -20.8918   19.9573 C.3     1  UNL1        0.0188
     14 C          -7.5871  -21.0020   19.2845 C.3     1  UNL1        0.0185
     15 C          -8.3820  -19.7649   18.9883 C.3     1  UNL1        0.0686
     16 N          -9.8811  -19.8154   19.0022 N.3     1  UNL1       -0.2985
     17 H         -10.1980  -19.3959   18.1282 H       1  UNL1        0.1232
     18 C         -12.6640  -18.0813   23.7021 C.3     1  UNL1        0.0000
     19 C         -12.1696  -17.8034   22.3135 C.3     1  UNL1        0.0001
     20 C         -12.8438  -16.4981   22.6159 C.3     1  UNL1        0.0000
     21 C         -11.9093  -17.0722   21.0300 C.3     1  UNL1        0.0014
     22 C         -11.1464  -17.7429   19.9261 C.3     1  UNL1        0.0157
     23 C         -10.6439  -19.1447   20.1060 C.3     1  UNL1        0.0540
     24 C         -10.9043  -19.8759   21.3896 C.3     1  UNL1        0.0157
     25 C         -11.6671  -19.2052   22.4933 C.3     1  UNL1        0.0014
     26 C          -6.8769  -17.9067   21.6271 C.3     1  UNL1        0.0886
     27 C          -7.3575  -17.3171   22.9200 C.3     1  UNL1        0.0748
     28 C          -6.3997  -16.5842   23.8119 C.3     1  UNL1        0.0432
     29 C          -6.8803  -15.9947   25.1048 C.ar    1  UNL1       -0.0234
     30 C          -5.9225  -15.2618   25.9968 C.ar    1  UNL1       -0.0045
     31 C          -6.4031  -14.6723   27.2896 C.ar    1  UNL1       -0.0003
     32 C          -7.8414  -14.8156   27.6905 C.ar    1  UNL1       -0.0003
     33 C          -8.7992  -15.5484   26.7985 C.ar    1  UNL1       -0.0032
     34 C          -8.3186  -16.1380   25.5057 C.ar    1  UNL1       -0.0103
     35 C          -9.2764  -16.8708   24.6137 C.3     1  UNL1        0.0953
     36 N          -8.7958  -17.4604   23.3208 N.3     1  UNL1       -0.2934
     37 H          -9.3520  -17.0356   22.5788 H       1  UNL1        0.1236
@<TRIPOS>BOND
     1    18    19    1
     2    19    20    1
     3    19    21    1
     4    21    22    1
     5    22    23    1
     6    23    16    1
     7    16    15    1
     8    15    14    1
     9    14    13    1
    10    13    12    1
    11    12     1    1
    12     1    26    1
    13    27    26    1
    14    27    28    1
    15    28    29    1
    16    29    30   ar
    17    30    31   ar
    18    31    32   ar
    19    32    33   ar
    20    33    34   ar
    21    34    35    1
    22    35    36    1
    23     2     1    1
    24     2     3    1
    25     3     4    1
    26     4     5    1
    27     5     6    1
    28     6     7   ar
    29     7     8   ar
    30     8     9   ar
    31     9    10   ar
    32    10    11   ar
    33    23    24    1
    34    24    25    1
    35    25    19    1
    36    36    27    1
    37    11     2    1
    38    34    29   ar
    39    11     6   ar
    40    16    17    1
    41    36    37    1
@<TRIPOS>MOLECULE
*****
 37 41 0 0 0
SMALL
GASTEIGER

@<TRIPOS>ATOM
      1 N          -7.9958  -17.0931   22.9847 N.3     1  UNL1       -0.2679
      2 C          -9.3989  -17.5759   23.2048 C.3     1  UNL1        0.0978
      3 C          -9.7144  -18.4532   24.3798 C.3     1  UNL1        0.0224
      4 C         -11.1174  -18.9361   24.6000 C.3     1  UNL1        0.0065
      5 C         -12.2049  -18.5415   23.6452 C.3     1  UNL1        0.0277
      6 C         -11.8893  -17.6642   22.4702 C.ar    1  UNL1       -0.0073
      7 C         -12.9768  -17.2696   21.5153 C.ar    1  UNL1       -0.0015
      8 C         -12.6612  -16.3923   20.3403 C.ar    1  UNL1        0.0203
      9 C         -11.2582  -15.9095   20.1201 C.ar    1  UNL1        0.0985
     10 N         -10.1708  -16.3040   21.0749 N.ar    1  UNL1       -0.2471
     11 C         -10.4863  -17.1814   22.2500 C.ar    1  UNL1        0.0695
     12 C          -7.6922  -15.6249   23.0297 C.3     1  UNL1        0.0725
     13 C          -7.4432  -14.9505   24.3463 C.3     1  UNL1        0.0188
     14 C          -6.1747  -15.2214   25.0996 C.3     1  UNL1        0.0185
     15 C          -4.8944  -15.4540   24.3535 C.3     1  UNL1        0.0686
     16 N          -4.3354  -16.8412   24.2374 N.3     1  UNL1       -0.2985
     17 H          -3.8076  -17.0184   25.0921 H       1  UNL1        0.1232
     18 C          -0.7277  -17.2337   19.8021 C.3     1  UNL1        0.0000
     19 C          -1.6320  -17.8969   20.7984 C.3     1  UNL1        0.0001
     20 C          -1.1556  -19.0991   20.0385 C.3     1  UNL1        0.0000
     21 C          -2.3707  -18.9775   21.5308 C.3     1  UNL1        0.0014
     22 C          -3.2719  -18.6256   22.6771 C.3     1  UNL1        0.0157
     23 C          -3.4343  -17.1931   23.0911 C.3     1  UNL1        0.0540
     24 C          -2.6954  -16.1124   22.3587 C.3     1  UNL1        0.0157
     25 C          -1.7943  -16.4643   21.2124 C.3     1  UNL1        0.0014
     26 C          -6.8965  -18.0785   22.7195 C.3     1  UNL1        0.0886
     27 C          -7.0457  -19.0917   21.6234 C.3     1  UNL1        0.0748
     28 C          -8.1936  -18.9939   20.6628 C.3     1  UNL1        0.0432
     29 C          -8.3428  -20.0071   19.5668 C.ar    1  UNL1       -0.0234
     30 C          -9.4906  -19.9093   18.6062 C.ar    1  UNL1       -0.0045
     31 C          -9.6398  -20.9224   17.5102 C.ar    1  UNL1       -0.0003
     32 C          -8.6411  -22.0334   17.3748 C.ar    1  UNL1       -0.0003
     33 C          -7.4932  -22.1312   18.3354 C.ar    1  UNL1       -0.0032
     34 C          -7.3440  -21.1180   19.4314 C.ar    1  UNL1       -0.0103
     35 C          -6.1961  -21.2158   20.3921 C.3     1  UNL1        0.0953
     36 N          -6.0470  -20.2026   21.4880 N.3     1  UNL1       -0.2934
     37 H          -5.1345  -19.7646   21.3619 H       1  UNL1        0.1236
@<TRIPOS>BOND
     1    18    19    1
     2    19    20    1
     3    19    21    1
     4    21    22    1
     5    22    23    1
     6    23    16    1
     7    16    15    1
     8    15    14    1
     9    14    13    1
    10    13    12    1
    11    12     1    1
    12     1    26    1
    13    27    26    1
    14    27    28    1
    15    28    29    1
    16    29    30   ar
    17    30    31   ar
    18    31    32   ar
    19    32    33   ar
    20    33    34   ar
    21    34    35    1
    22    35    36    1
    23     2     1    1
    24     2     3    1
    25     3     4    1
    26     4     5    1
    27     5     6    1
    28     6     7   ar
    29     7     8   ar
    30     8     9   ar
    31     9    10   ar
    32    10    11   ar
    33    23    24    1
    34    24    25    1
    35    25    19    1
    36    36    27    1
    37    11     2    1
    38    34    29   ar
    39    11     6   ar
    40    16    17    1
    41    36    37    1
@<TRIPOS>MOLECULE
*****
 37 41 0 0 0
SMALL
GASTEIGER

@<TRIPOS>ATOM
      1 N          -9.0458  -18.5598   23.4929 N.3     1  UNL1       -0.2679
      2 C         -10.5138  -18.2892   23.3456 C.3     1  UNL1        0.0978
      3 C         -11.4787  -18.8088   24.3698 C.3     1  UNL1        0.0224
      4 C         -12.9467  -18.5382   24.2225 C.3     1  UNL1        0.0065
      5 C         -13.4499  -17.7480   23.0511 C.3     1  UNL1        0.0277
      6 C         -12.4850  -17.2283   22.0269 C.ar    1  UNL1       -0.0073
      7 C         -12.9881  -16.4380   20.8554 C.ar    1  UNL1       -0.0015
      8 C         -12.0232  -15.9183   19.8313 C.ar    1  UNL1        0.0203
      9 C         -10.5552  -16.1890   19.9786 C.ar    1  UNL1        0.0985
     10 N         -10.0521  -16.9792   21.1500 N.ar    1  UNL1       -0.2471
     11 C         -11.0170  -17.4989   22.1742 C.ar    1  UNL1        0.0695
     12 C          -8.1942  -17.6456   24.3229 C.3     1  UNL1        0.0725
     13 C          -8.8336  -16.5672   25.1466 C.3     1  UNL1        0.0188
     14 C          -8.5646  -16.4901   26.6202 C.3     1  UNL1        0.0185
     15 C          -8.1037  -15.2004   27.2320 C.3     1  UNL1        0.0686
     16 N          -6.6549  -14.8163   27.1697 N.3     1  UNL1       -0.2985
     17 H          -6.6239  -13.8078   27.0203 H       1  UNL1        0.1232
     18 C          -3.5939  -16.5098   22.6306 C.3     1  UNL1        0.0000
     19 C          -3.9663  -16.6715   24.0746 C.3     1  UNL1        0.0001
     20 C          -2.9658  -17.7806   23.9380 C.3     1  UNL1        0.0000
     21 C          -3.9913  -17.2184   25.4711 C.3     1  UNL1        0.0014
     22 C          -4.8875  -16.6000   26.5029 C.3     1  UNL1        0.0157
     23 C          -5.7588  -15.4347   26.1380 C.3     1  UNL1        0.0540
     24 C          -5.7338  -14.8879   24.7414 C.3     1  UNL1        0.0157
     25 C          -4.8376  -15.5063   23.7098 C.3     1  UNL1        0.0014
     26 C          -8.4294  -19.7446   22.8102 C.3     1  UNL1        0.0886
     27 C          -7.2645  -19.5547   21.8845 C.3     1  UNL1        0.0748
     28 C          -5.8733  -19.8554   22.3581 C.3     1  UNL1        0.0432
     29 C          -4.7084  -19.6654   21.4324 C.ar    1  UNL1       -0.0234
     30 C          -3.3173  -19.9661   21.9060 C.ar    1  UNL1       -0.0045
     31 C          -2.1524  -19.7762   20.9802 C.ar    1  UNL1       -0.0003
     32 C          -2.3787  -19.2856   19.5809 C.ar    1  UNL1       -0.0003
     33 C          -3.7698  -18.9849   19.1073 C.ar    1  UNL1       -0.0032
     34 C          -4.9347  -19.1748   20.0330 C.ar    1  UNL1       -0.0103
     35 C          -6.3259  -18.8741   19.5595 C.3     1  UNL1        0.0953
     36 N          -7.4907  -19.0641   20.4852 N.3     1  UNL1       -0.2934
     37 H          -8.1174  -19.7323   20.0366 H       1  UNL1        0.1236
@<TRIPOS>BOND
     1    18    19    1
     2    19    20    1
     3    19    21    1
     4    21    22    1
     5    22    23    1
     6    23    16    1
     7    16    15    1
     8    15    14    1
     9    14    13    1
    10    13    12    1
    11    12     1    1
    12     1    26    1
    13    27    26    1
    14    27    28    1
    15    28    29    1
    16    29    30   ar
    17    30    31   ar
    18    31    32   ar
    19    32    33   ar
    20    33    34   ar
    21    34    35    1
    22    35    36    1
    23     2     1    1
    24     2     3    1
    25     3     4    1
    26     4     5    1
    27     5     6    1
    28     6     7   ar
    29     7     8   ar
    30     8     9   ar
    31     9    10   ar
    32    10    11   ar
    33    23    24    1
    34    24    25    1
    35    25    19    1
    36    36    27    1
    37    11     2    1
    38    34    29   ar
    39    11     6   ar
    40    16    17    1
    41    36    37    1
@<TRIPOS>MOLECULE
*****
 37 41 0 0 0
SMALL
GASTEIGER

@<TRIPOS>ATOM
      1 N           7.7511   -2.6769   20.4921 N.3     1  UNL1       -0.2679
      2 C           6.2695   -2.7283   20.2636 C.3     1  UNL1        0.0978
      3 C           5.7107   -3.5657   19.1516 C.3     1  UNL1        0.0224
      4 C           4.2291   -3.6171   18.9231 C.3     1  UNL1        0.0065
      5 C           3.3063   -2.8312   19.8066 C.3     1  UNL1        0.0277
      6 C           3.8650   -1.9939   20.9186 C.ar    1  UNL1       -0.0073
      7 C           2.9421   -1.2079   21.8022 C.ar    1  UNL1       -0.0015
      8 C           3.5009   -0.3706   22.9142 C.ar    1  UNL1        0.0203
      9 C           4.9825   -0.3191   23.1427 C.ar    1  UNL1        0.0985
     10 N           5.9053   -1.1050   22.2592 N.ar    1  UNL1       -0.2471
     11 C           5.3466   -1.9424   21.1471 C.ar    1  UNL1        0.0695
     12 C           8.4394   -1.3541   20.6546 C.3     1  UNL1        0.0725
     13 C           9.2803   -0.8043   19.5407 C.3     1  UNL1        0.0188
     14 C           9.0299    0.5821   19.0260 C.3     1  UNL1        0.0185
     15 C           8.1725    0.7880   17.8126 C.3     1  UNL1        0.0686
     16 N           7.0453   -0.1579   17.5213 N.3     1  UNL1       -0.2985
     17 H           7.0292   -0.2944   16.5106 H       1  UNL1        0.1232
     18 C           1.4288    0.5910   18.3790 C.3     1  UNL1        0.0000
     19 C           2.8483    0.8947   18.7570 C.3     1  UNL1        0.0001
     20 C           2.1244    1.7360   19.7661 C.3     1  UNL1        0.0000
     21 C           4.0163    1.4906   19.4855 C.3     1  UNL1        0.0014
     22 C           5.4153    1.1397   19.0736 C.3     1  UNL1        0.0157
     23 C           5.6463    0.1930   17.9332 C.3     1  UNL1        0.0540
     24 C           4.4782   -0.4029   17.2048 C.3     1  UNL1        0.0157
     25 C           3.0792   -0.0520   17.6167 C.3     1  UNL1        0.0014
     26 C           8.5444   -3.9482   20.5581 C.3     1  UNL1        0.0886
     27 C           8.3976   -4.8635   21.7375 C.3     1  UNL1        0.0748
     28 C           7.7234   -4.3763   22.9856 C.3     1  UNL1        0.0432
     29 C           7.5767   -5.2915   24.1650 C.ar    1  UNL1       -0.0234
     30 C           6.9025   -4.8043   25.4132 C.ar    1  UNL1       -0.0045
     31 C           6.7558   -5.7196   26.5924 C.ar    1  UNL1       -0.0003
     32 C           7.2833   -7.1221   26.5235 C.ar    1  UNL1       -0.0003
     33 C           7.9576   -7.6093   25.2754 C.ar    1  UNL1       -0.0032
     34 C           8.1043   -6.6940   24.0961 C.ar    1  UNL1       -0.0103
     35 C           8.7785   -7.1812   22.8478 C.3     1  UNL1        0.0953
     36 N           8.9252   -6.2659   21.6686 N.3     1  UNL1       -0.2934
     37 H           8.4561   -6.7188   20.8842 H       1  UNL1        0.1236
@<TRIPOS>BOND
     1    18    19    1
     2    19    20    1
     3    19    21    1
     4    21    22    1
     5    22    23    1
     6    23    16    1
     7    16    15    1
     8    15    14    1
     9    14    13    1
    10    13    12    1
    11    12     1    1
    12     1    26    1
    13    27    26    1
    14    27    28    1
    15    28    29    1
    16    29    30   ar
    17    30    31   ar
    18    31    32   ar
    19    32    33   ar
    20    33    34   ar
    21    34    35    1
    22    35    36    1
    23     2     1    1
    24     2     3    1
    25     3     4    1
    26     4     5    1
    27     5     6    1
    28     6     7   ar
    29     7     8   ar
    30     8     9   ar
    31     9    10   ar
    32    10    11   ar
    33    23    24    1
    34    24    25    1
    35    25    19    1
    36    36    27    1
    37    11     2    1
    38    34    29   ar
    39    11     6   ar
    40    16    17    1
    41    36    37    1
@<TRIPOS>MOLECULE
*****
 37 41 0 0 0
SMALL
GASTEIGER

@<TRIPOS>ATOM
      1 N           7.4809   -3.8973   21.8492 N.3     1  UNL1       -0.2679
      2 C           7.8591   -5.0030   22.7897 C.3     1  UNL1        0.0978
      3 C           8.5898   -6.2078   22.2757 C.3     1  UNL1        0.0224
      4 C           8.9679   -7.3135   23.2162 C.3     1  UNL1        0.0065
      5 C           8.6153   -7.2142   24.6708 C.3     1  UNL1        0.0277
      6 C           7.8846   -6.0094   25.1848 C.ar    1  UNL1       -0.0073
      7 C           7.5319   -5.9101   26.6394 C.ar    1  UNL1       -0.0015
      8 C           6.8012   -4.7052   27.1535 C.ar    1  UNL1        0.0203
      9 C           6.4231   -3.5996   26.2130 C.ar    1  UNL1        0.0985
     10 N           6.7757   -3.6988   24.7584 N.ar    1  UNL1       -0.2471
     11 C           7.5065   -4.9037   24.2443 C.ar    1  UNL1        0.0695
     12 C           8.4611   -2.8034   21.5450 C.3     1  UNL1        0.0725
     13 C           9.2320   -2.8236   20.2583 C.3     1  UNL1        0.0188
     14 C           8.7343   -2.0500   19.0736 C.3     1  UNL1        0.0185
     15 C           7.3926   -2.3655   18.4818 C.3     1  UNL1        0.0686
     16 N           6.7257   -1.3807   17.5676 N.3     1  UNL1       -0.2985
     17 H           7.4688   -0.8981   17.0623 H       1  UNL1        0.1232
     18 C           3.9362    2.7088   20.4548 C.3     1  UNL1        0.0000
     19 C           4.0324    1.7992   19.2660 C.3     1  UNL1        0.0001
     20 C           2.7532    2.5135   18.9445 C.3     1  UNL1        0.0000
     21 C           3.6844    1.1377   17.9656 C.3     1  UNL1        0.0014
     22 C           4.5821    0.0777   17.3994 C.3     1  UNL1        0.0157
     23 C           5.8280   -0.3207   18.1337 C.3     1  UNL1        0.0540
     24 C           6.1760    0.3409   19.4342 C.3     1  UNL1        0.0157
     25 C           5.2782    1.4008   20.0003 C.3     1  UNL1        0.0014
     26 C           6.1226   -3.8856   21.2129 C.3     1  UNL1        0.0886
     27 C           5.1349   -2.8157   21.5732 C.3     1  UNL1        0.0748
     28 C           3.9930   -2.5077   20.6506 C.3     1  UNL1        0.0432
     29 C           3.0052   -1.4378   21.0108 C.ar    1  UNL1       -0.0234
     30 C           1.8634   -1.1299   20.0882 C.ar    1  UNL1       -0.0045
     31 C           0.8757   -0.0600   20.4485 C.ar    1  UNL1       -0.0003
     32 C           1.0298    0.7018   21.7314 C.ar    1  UNL1       -0.0003
     33 C           2.1716    0.3938   22.6540 C.ar    1  UNL1       -0.0032
     34 C           3.1594   -0.6760   22.2937 C.ar    1  UNL1       -0.0103
     35 C           4.3013   -0.9840   23.2164 C.3     1  UNL1        0.0953
     36 N           5.2890   -2.0539   22.8561 N.3     1  UNL1       -0.2934
     37 H           5.2680   -2.7401   23.6104 H       1  UNL1        0.1236
@<TRIPOS>BOND
     1    18    19    1
     2    19    20    1
     3    19    21    1
     4    21    22    1
     5    22    23    1
     6    23    16    1
     7    16    15    1
     8    15    14    1
     9    14    13    1
    10    13    12    1
    11    12     1    1
    12     1    26    1
    13    27    26    1
    14    27    28    1
    15    28    29    1
    16    29    30   ar
    17    30    31   ar
    18    31    32   ar
    19    32    33   ar
    20    33    34   ar
    21    34    35    1
    22    35    36    1
    23     2     1    1
    24     2     3    1
    25     3     4    1
    26     4     5    1
    27     5     6    1
    28     6     7   ar
    29     7     8   ar
    30     8     9   ar
    31     9    10   ar
    32    10    11   ar
    33    23    24    1
    34    24    25    1
    35    25    19    1
    36    36    27    1
    37    11     2    1
    38    34    29   ar
    39    11     6   ar
    40    16    17    1
    41    36    37    1
