@<TRIPOS>MOLECULE
*****
 35 39 0 0 0
SMALL
GASTEIGER

@<TRIPOS>ATOM
      1 C           3.8665   -1.1570   18.9057 C.3     1  UNL1        0.0744
      2 C           3.4742   -0.0755   17.9433 C.3     1  UNL1        0.0113
      3 C           4.2963   -0.7299   16.8728 C.3     1  UNL1        0.0015
      4 C           4.6886   -1.8114   17.8353 C.3     1  UNL1        0.0113
      5 C           3.0444   -0.5026   19.9763 C.ar    1  UNL1       -0.0159
      6 C           1.5496   -0.6252   19.9542 C.ar    1  UNL1       -0.0039
      7 C           0.7276    0.0291   21.0247 C.ar    1  UNL1       -0.0002
      8 C           1.4003    0.8062   22.1172 C.ar    1  UNL1        0.0030
      9 C           2.8951    0.9289   22.1392 C.ar    1  UNL1       -0.0002
     10 C           3.7171    0.2745   21.0688 C.ar    1  UNL1       -0.0039
     11 C           0.5782    1.4606   23.1877 C.ar    1  UNL1        0.0384
     12 C          -0.2759    2.6484   22.8566 C.ar    1  UNL1        0.1033
     13 N          -1.0981    3.3028   23.9272 N.ar    1  UNL1       -0.2125
     14 C          -1.0660    2.7694   25.3288 C.ar    1  UNL1        0.2137
     15 N          -1.8881    3.4237   26.3992 N.pl3   1  UNL1       -0.3274
     16 N          -0.2118    1.5815   25.6598 N.ar    1  UNL1       -0.2125
     17 C           0.6103    0.9272   24.5893 C.ar    1  UNL1        0.1033
     18 H          -2.4487    4.2033   26.1820 H       1  UNL1        0.1452
     19 H          -1.8670    3.0736   27.3192 H       1  UNL1        0.1452
     20 C           5.4404   -3.4854   21.5829 C.ar    1  UNL1        0.2628
     21 N           5.4243   -2.1989   20.8118 N.ar    1  UNL1       -0.1907
     22 C           4.2589   -2.2385   19.8682 C.ar    1  UNL1        0.1837
     23 N           3.5547   -3.5495   20.0562 N.ar    1  UNL1       -0.0599
     24 O           4.2849   -4.3202   21.1159 O.2     1  UNL1       -0.3326
     25 N           7.4593   -4.3278   24.7890 N.ar    1  UNL1       -0.2468
     26 C           6.1955   -3.8800   24.1164 C.ar    1  UNL1        0.1015
     27 C           6.4370   -3.8696   22.6360 C.ar    1  UNL1        0.0956
     28 C           7.8499   -4.3110   22.3936 C.ar    1  UNL1        0.1264
     29 N           8.4818   -4.5942   23.7243 N.ar    1  UNL1       -0.1674
     30 C           7.6646   -4.4822   26.2669 C.3     1  UNL1        0.1541
     31 C           6.2868   -3.8001   27.7287 C.3     1  UNL1        0.0314
     32 C           6.6040   -5.1284   27.1080 C.3     1  UNL1        0.1110
     33 C           6.9210   -6.4566   26.4873 C.3     1  UNL1        0.0314
     34 O           5.5433   -5.7747   27.9491 O.3     1  UNL1       -0.3848
     35 H           5.1213   -5.1042   28.5088 H       1  UNL1        0.2103
@<TRIPOS>BOND
     1    31    32    1
     2    32    33    1
     3    32    34    1
     4    32    30    1
     5    30    25    1
     6    25    26   ar
     7    26    27   ar
     8    27    20    1
     9    20    21   ar
    10    21    22   ar
    11    22     1    1
    12     1     5    1
    13     5     6   ar
    14     6     7   ar
    15     7     8   ar
    16     8    11    1
    17    11    12   ar
    18    12    13   ar
    19    13    14   ar
    20    14    15    1
    21    14    16   ar
    22    16    17   ar
    23     8     9   ar
    24     9    10   ar
    25     1     2    1
    26     2     3    1
    27     3     4    1
    28    22    23   ar
    29    23    24   ar
    30    27    28   ar
    31    28    29   ar
    32    29    25   ar
    33    24    20   ar
    34     4     1    1
    35    10     5   ar
    36    17    11   ar
    37    34    35    1
    38    15    18    1
    39    15    19    1
@<TRIPOS>MOLECULE
*****
 35 39 0 0 0
SMALL
GASTEIGER

@<TRIPOS>ATOM
      1 C          -0.9153    2.7077   25.9514 C.3     1  UNL1        0.0744
      2 C          -2.0471    3.1150   26.8474 C.3     1  UNL1        0.0113
      3 C          -2.8076    3.6199   25.6572 C.3     1  UNL1        0.0015
      4 C          -1.6758    3.2125   24.7611 C.3     1  UNL1        0.0113
      5 C          -0.1547    2.2027   27.1416 C.ar    1  UNL1       -0.0159
      6 C           0.5354    3.1706   28.0564 C.ar    1  UNL1       -0.0039
      7 C           1.2959    2.6657   29.2466 C.ar    1  UNL1       -0.0002
      8 C           1.3664    1.1929   29.5219 C.ar    1  UNL1        0.0030
      9 C           0.6764    0.2250   28.6071 C.ar    1  UNL1       -0.0002
     10 C          -0.0842    0.7299   27.4169 C.ar    1  UNL1       -0.0039
     11 C           2.1270    0.6880   30.7122 C.ar    1  UNL1        0.0384
     12 C           2.2865    1.5571   31.9242 C.ar    1  UNL1        0.1033
     13 N           3.0471    1.0522   33.1145 N.ar    1  UNL1       -0.2125
     14 C           3.6482   -0.3219   33.0926 C.ar    1  UNL1        0.2137
     15 N           4.4088   -0.8268   34.2827 N.pl3   1  UNL1       -0.3274
     16 N           3.4887   -1.1911   31.8805 N.ar    1  UNL1       -0.2125
     17 C           2.7282   -0.6862   30.6903 C.ar    1  UNL1        0.1033
     18 H           4.5135   -0.2564   35.0783 H       1  UNL1        0.1452
     19 H           4.8033   -1.7287   34.2684 H       1  UNL1        0.1452
     20 C           1.5165    1.1621   23.3507 C.ar    1  UNL1        0.2628
     21 N           0.1670    1.2337   24.0016 N.ar    1  UNL1       -0.1907
     22 C           0.2165    2.3003   25.0553 C.ar    1  UNL1        0.1837
     23 N           1.5967    2.8878   25.0556 N.ar    1  UNL1       -0.0599
     24 O           2.4002    2.1844   24.0020 O.2     1  UNL1       -0.3326
     25 N           3.1062   -1.4368   20.9458 N.ar    1  UNL1       -0.2468
     26 C           3.0899   -0.6981   22.2512 C.ar    1  UNL1        0.1015
     27 C           1.9128    0.2317   22.2429 C.ar    1  UNL1        0.0956
     28 C           1.2016    0.0677   20.9325 C.ar    1  UNL1        0.1264
     29 N           1.9392   -0.9636   20.1308 N.ar    1  UNL1       -0.1674
     30 C           4.1127   -2.4677   20.5286 C.3     1  UNL1        0.1541
     31 C           3.6507   -3.9463   19.0792 C.3     1  UNL1        0.0314
     32 C           4.4278   -2.6632   19.0752 C.3     1  UNL1        0.1110
     33 C           5.2048   -1.3802   19.0710 C.3     1  UNL1        0.0314
     34 O           4.7428   -2.8586   17.6216 O.3     1  UNL1       -0.3848
     35 H           4.3370   -3.6830   17.3108 H       1  UNL1        0.2103
@<TRIPOS>BOND
     1    31    32    1
     2    32    33    1
     3    32    34    1
     4    32    30    1
     5    30    25    1
     6    25    26   ar
     7    26    27   ar
     8    27    20    1
     9    20    21   ar
    10    21    22   ar
    11    22     1    1
    12     1     5    1
    13     5     6   ar
    14     6     7   ar
    15     7     8   ar
    16     8    11    1
    17    11    12   ar
    18    12    13   ar
    19    13    14   ar
    20    14    15    1
    21    14    16   ar
    22    16    17   ar
    23     8     9   ar
    24     9    10   ar
    25     1     2    1
    26     2     3    1
    27     3     4    1
    28    22    23   ar
    29    23    24   ar
    30    27    28   ar
    31    28    29   ar
    32    29    25   ar
    33    24    20   ar
    34     4     1    1
    35    10     5   ar
    36    17    11   ar
    37    34    35    1
    38    15    18    1
    39    15    19    1
@<TRIPOS>MOLECULE
*****
 35 39 0 0 0
SMALL
GASTEIGER

@<TRIPOS>ATOM
      1 C          -4.7330    4.0043   19.9152 C.3     1  UNL1        0.0744
      2 C          -6.1573    4.1433   19.4656 C.3     1  UNL1        0.0113
      3 C          -5.7561    3.7533   18.0739 C.3     1  UNL1        0.0015
      4 C          -4.3318    3.6142   18.5235 C.3     1  UNL1        0.0113
      5 C          -5.1342    4.3943   21.3070 C.ar    1  UNL1       -0.0159
      6 C          -5.6007    5.7917   21.5892 C.ar    1  UNL1       -0.0039
      7 C          -6.0019    6.1816   22.9809 C.ar    1  UNL1       -0.0002
      8 C          -5.9365    5.1743   24.0904 C.ar    1  UNL1        0.0030
      9 C          -5.4699    3.7769   23.8082 C.ar    1  UNL1       -0.0002
     10 C          -5.0688    3.3870   22.4164 C.ar    1  UNL1       -0.0039
     11 C          -6.3377    5.5643   25.4822 C.ar    1  UNL1        0.0384
     12 C          -7.7068    6.1200   25.7402 C.ar    1  UNL1        0.1033
     13 N          -8.1080    6.5101   27.1320 N.ar    1  UNL1       -0.2125
     14 C          -7.1399    6.3444   28.2657 C.ar    1  UNL1        0.2137
     15 N          -7.5410    6.7344   29.6575 N.pl3   1  UNL1       -0.3274
     16 N          -5.7707    5.7886   28.0077 N.ar    1  UNL1       -0.2125
     17 C          -5.3696    5.3986   26.6160 C.ar    1  UNL1        0.1033
     18 H          -8.4397    7.0991   29.8268 H       1  UNL1        0.1452
     19 H          -6.9057    6.6256   30.4016 H       1  UNL1        0.1452
     20 C          -1.1392    2.9180   20.9002 C.ar    1  UNL1        0.2628
     21 N          -2.5076    2.5971   20.3761 N.ar    1  UNL1       -0.1907
     22 C          -3.3088    3.8653   20.3647 C.ar    1  UNL1        0.1837
     23 N          -2.4356    4.9699   20.8817 N.ar    1  UNL1       -0.0599
     24 O          -1.0947    4.3845   21.2127 O.2     1  UNL1       -0.3326
     25 N           1.4882    0.0651   20.7528 N.ar    1  UNL1       -0.2468
     26 C           0.2743    0.7576   20.2080 C.ar    1  UNL1        0.1015
     27 C          -0.0132    1.9437   21.0802 C.ar    1  UNL1        0.0956
     28 C           1.0231    1.9842   22.1640 C.ar    1  UNL1        0.1264
     29 N           1.9511    0.8231   21.9616 N.ar    1  UNL1       -0.1674
     30 C           2.1273   -1.1689   20.1879 C.3     1  UNL1        0.1541
     31 C           3.3124   -0.3283   18.6422 C.3     1  UNL1        0.0314
     32 C           3.5893   -1.1699   19.8526 C.3     1  UNL1        0.1110
     33 C           3.8662   -2.0115   21.0630 C.3     1  UNL1        0.0314
     34 O           5.0514   -1.1710   19.5174 O.3     1  UNL1       -0.3848
     35 H           5.1978   -0.6582   18.7072 H       1  UNL1        0.2103
@<TRIPOS>BOND
     1    31    32    1
     2    32    33    1
     3    32    34    1
     4    32    30    1
     5    30    25    1
     6    25    26   ar
     7    26    27   ar
     8    27    20    1
     9    20    21   ar
    10    21    22   ar
    11    22     1    1
    12     1     5    1
    13     5     6   ar
    14     6     7   ar
    15     7     8   ar
    16     8    11    1
    17    11    12   ar
    18    12    13   ar
    19    13    14   ar
    20    14    15    1
    21    14    16   ar
    22    16    17   ar
    23     8     9   ar
    24     9    10   ar
    25     1     2    1
    26     2     3    1
    27     3     4    1
    28    22    23   ar
    29    23    24   ar
    30    27    28   ar
    31    28    29   ar
    32    29    25   ar
    33    24    20   ar
    34     4     1    1
    35    10     5   ar
    36    17    11   ar
    37    34    35    1
    38    15    18    1
    39    15    19    1
@<TRIPOS>MOLECULE
*****
 35 39 0 0 0
SMALL
GASTEIGER

@<TRIPOS>ATOM
      1 C           8.3939   -5.8401   24.6558 C.3     1  UNL1        0.0744
      2 C           8.6294   -7.0389   23.7855 C.3     1  UNL1        0.0113
      3 C           9.2991   -7.7388   24.9307 C.3     1  UNL1        0.0015
      4 C           9.0636   -6.5400   25.8010 C.3     1  UNL1        0.0113
      5 C           7.7241   -5.1402   23.5105 C.ar    1  UNL1       -0.0159
      6 C           6.3584   -4.5463   23.6898 C.ar    1  UNL1       -0.0039
      7 C           5.6887   -3.8464   22.5446 C.ar    1  UNL1       -0.0002
      8 C           6.3848   -3.7403   21.2201 C.ar    1  UNL1        0.0030
      9 C           7.7505   -4.3341   21.0408 C.ar    1  UNL1       -0.0002
     10 C           8.4202   -5.0340   22.1860 C.ar    1  UNL1       -0.0039
     11 C           5.7150   -3.0403   20.0748 C.ar    1  UNL1        0.0384
     12 C           6.4713   -2.7884   18.8042 C.ar    1  UNL1        0.1033
     13 N           5.8016   -2.0884   17.6589 N.ar    1  UNL1       -0.2125
     14 C           4.3756   -1.6403   17.7844 C.ar    1  UNL1        0.2137
     15 N           3.7058   -0.9404   16.6392 N.pl3   1  UNL1       -0.3274
     16 N           3.6193   -1.8922   19.0551 N.ar    1  UNL1       -0.2125
     17 C           4.2891   -2.5922   20.2003 C.ar    1  UNL1        0.1033
     18 H           4.2022   -0.7751   15.8052 H       1  UNL1        0.1452
     19 H           2.7699   -0.6463   16.7216 H       1  UNL1        0.1452
     20 C           7.3990   -3.2198   27.3409 C.ar    1  UNL1        0.2628
     21 N           7.3777   -4.6214   26.8069 N.ar    1  UNL1       -0.1907
     22 C           8.1583   -4.6414   25.5261 C.ar    1  UNL1        0.1837
     23 N           8.6620   -3.2522   25.2685 N.ar    1  UNL1       -0.0599
     24 O           8.1928   -2.3735   26.3901 O.2     1  UNL1       -0.3326
     25 N           6.0916   -2.5525   30.9340 N.ar    1  UNL1       -0.2468
     26 C           6.9395   -3.3304   29.9718 C.ar    1  UNL1        0.1015
     27 C           6.7420   -2.7474   28.6038 C.ar    1  UNL1        0.0956
     28 C           5.7720   -1.6093   28.7206 C.ar    1  UNL1        0.1264
     29 N           5.3700   -1.4887   30.1608 N.ar    1  UNL1       -0.1674
     30 C           5.9841   -2.7955   32.4103 C.3     1  UNL1        0.1541
     31 C           4.3509   -2.0738   33.5556 C.3     1  UNL1        0.0314
     32 C           5.7725   -1.6430   33.3467 C.3     1  UNL1        0.1110
     33 C           7.1940   -1.2122   33.1378 C.3     1  UNL1        0.0314
     34 O           5.5608   -0.4904   34.2831 O.3     1  UNL1       -0.3848
     35 H           4.6485   -0.5046   34.6123 H       1  UNL1        0.2103
@<TRIPOS>BOND
     1    31    32    1
     2    32    33    1
     3    32    34    1
     4    32    30    1
     5    30    25    1
     6    25    26   ar
     7    26    27   ar
     8    27    20    1
     9    20    21   ar
    10    21    22   ar
    11    22     1    1
    12     1     5    1
    13     5     6   ar
    14     6     7   ar
    15     7     8   ar
    16     8    11    1
    17    11    12   ar
    18    12    13   ar
    19    13    14   ar
    20    14    15    1
    21    14    16   ar
    22    16    17   ar
    23     8     9   ar
    24     9    10   ar
    25     1     2    1
    26     2     3    1
    27     3     4    1
    28    22    23   ar
    29    23    24   ar
    30    27    28   ar
    31    28    29   ar
    32    29    25   ar
    33    24    20   ar
    34     4     1    1
    35    10     5   ar
    36    17    11   ar
    37    34    35    1
    38    15    18    1
    39    15    19    1
@<TRIPOS>MOLECULE
*****
 35 39 0 0 0
SMALL
GASTEIGER

@<TRIPOS>ATOM
      1 C           5.9313   -0.6149   32.6704 C.3     1  UNL1        0.0744
      2 C           7.2743   -0.6957   33.3335 C.3     1  UNL1        0.0113
      3 C           6.9152    0.4724   34.2032 C.3     1  UNL1        0.0015
      4 C           5.5722    0.5532   33.5401 C.3     1  UNL1        0.0113
      5 C           6.2904   -1.7831   31.8007 C.ar    1  UNL1       -0.0159
      6 C           6.4935   -3.1382   32.4110 C.ar    1  UNL1       -0.0039
      7 C           6.8525   -4.3063   31.5413 C.ar    1  UNL1       -0.0002
      8 C           7.0085   -4.1194   30.0611 C.ar    1  UNL1        0.0030
      9 C           6.8055   -2.7643   29.4508 C.ar    1  UNL1       -0.0002
     10 C           6.4464   -1.5962   30.3206 C.ar    1  UNL1       -0.0039
     11 C           7.3676   -5.2876   29.1914 C.ar    1  UNL1        0.0384
     12 C           8.4224   -6.2571   29.6356 C.ar    1  UNL1        0.1033
     13 N           8.7815   -7.4253   28.7658 N.ar    1  UNL1       -0.2125
     14 C           8.0857   -7.6239   27.4519 C.ar    1  UNL1        0.2137
     15 N           8.4447   -8.7921   26.5821 N.pl3   1  UNL1       -0.3274
     16 N           7.0309   -6.6543   27.0077 N.ar    1  UNL1       -0.2125
     17 C           6.6718   -5.4862   27.8774 C.ar    1  UNL1        0.1033
     18 H           9.1370   -9.4284   26.8736 H       1  UNL1        0.1452
     19 H           7.9881   -8.9224   25.7197 H       1  UNL1        0.1452
     20 C           2.7026    0.2600   30.7017 C.ar    1  UNL1        0.2628
     21 N           4.0918    0.5970   31.1562 N.ar    1  UNL1       -0.1907
     22 C           4.5883   -0.5341   32.0073 C.ar    1  UNL1        0.1837
     23 N           3.5059   -1.5701   32.0789 N.ar    1  UNL1       -0.0599
     24 O           2.3404   -1.0793   31.2720 O.2     1  UNL1       -0.3326
     25 N           0.0753    1.8221   28.3097 N.ar    1  UNL1       -0.2468
     26 C           0.6533    0.6389   29.0280 C.ar    1  UNL1        0.1015
     27 C           1.8290    1.1126   29.8302 C.ar    1  UNL1        0.0956
     28 C           1.9776    2.5885   29.6076 C.ar    1  UNL1        0.1264
     29 N           0.8937    3.0271   28.6679 N.ar    1  UNL1       -0.1674
     30 C          -1.1126    1.8037   27.3940 C.3     1  UNL1        0.1541
     31 C          -0.1145    1.3646   25.5743 C.3     1  UNL1        0.0314
     32 C          -1.0302    2.4553   26.0455 C.3     1  UNL1        0.1110
     33 C          -1.9459    3.5460   26.5165 C.3     1  UNL1        0.0314
     34 O          -0.9478    3.1070   24.6969 O.3     1  UNL1       -0.3848
     35 H          -0.3718    2.5825   24.1190 H       1  UNL1        0.2103
@<TRIPOS>BOND
     1    31    32    1
     2    32    33    1
     3    32    34    1
     4    32    30    1
     5    30    25    1
     6    25    26   ar
     7    26    27   ar
     8    27    20    1
     9    20    21   ar
    10    21    22   ar
    11    22     1    1
    12     1     5    1
    13     5     6   ar
    14     6     7   ar
    15     7     8   ar
    16     8    11    1
    17    11    12   ar
    18    12    13   ar
    19    13    14   ar
    20    14    15    1
    21    14    16   ar
    22    16    17   ar
    23     8     9   ar
    24     9    10   ar
    25     1     2    1
    26     2     3    1
    27     3     4    1
    28    22    23   ar
    29    23    24   ar
    30    27    28   ar
    31    28    29   ar
    32    29    25   ar
    33    24    20   ar
    34     4     1    1
    35    10     5   ar
    36    17    11   ar
    37    34    35    1
    38    15    18    1
    39    15    19    1
@<TRIPOS>MOLECULE
*****
 35 39 0 0 0
SMALL
GASTEIGER

@<TRIPOS>ATOM
      1 C          -2.1537  -17.8921   20.8932 C.3     1  UNL1        0.0744
      2 C          -1.1561  -16.8438   21.2877 C.3     1  UNL1        0.0113
      3 C          -0.2081  -17.3525   20.2426 C.3     1  UNL1        0.0015
      4 C          -1.2057  -18.4009   19.8481 C.3     1  UNL1        0.0113
      5 C          -3.1018  -17.3834   21.9384 C.ar    1  UNL1       -0.0159
      6 C          -3.3582  -15.9110   22.0655 C.ar    1  UNL1       -0.0039
      7 C          -4.3062  -15.4023   23.1107 C.ar    1  UNL1       -0.0002
      8 C          -4.9979  -16.3661   24.0287 C.ar    1  UNL1        0.0030
      9 C          -4.7415  -17.8385   23.9016 C.ar    1  UNL1       -0.0002
     10 C          -3.7934  -18.3472   22.8565 C.ar    1  UNL1       -0.0039
     11 C          -5.9460  -15.8573   25.0739 C.ar    1  UNL1        0.0384
     12 C          -7.4161  -15.7901   24.7840 C.ar    1  UNL1        0.1033
     13 N          -8.3642  -15.2814   25.8292 N.ar    1  UNL1       -0.2125
     14 C          -7.8421  -14.8399   27.1643 C.ar    1  UNL1        0.2137
     15 N          -8.7901  -14.3311   28.2095 N.pl3   1  UNL1       -0.3274
     16 N          -6.3719  -14.9071   27.4542 N.ar    1  UNL1       -0.2125
     17 C          -5.4239  -15.4158   26.4090 C.ar    1  UNL1        0.1033
     18 H          -9.7550  -14.2870   28.0192 H       1  UNL1        0.1452
     19 H          -8.4474  -14.0414   29.0857 H       1  UNL1        0.1452
     20 C          -5.2248  -20.0323   19.8669 C.ar    1  UNL1        0.2628
     21 N          -4.6088  -18.7129   20.2269 N.ar    1  UNL1       -0.1907
     22 C          -3.1512  -18.9405   20.4987 C.ar    1  UNL1        0.1837
     23 N          -2.8665  -20.4007   20.3067 N.ar    1  UNL1       -0.0599
     24 O          -4.1480  -21.0755   19.9162 O.2     1  UNL1       -0.3326
     25 N          -9.0649  -19.9773   19.3055 N.ar    1  UNL1       -0.2468
     26 C          -7.8093  -19.3511   19.8358 C.ar    1  UNL1        0.1015
     27 C          -6.6647  -20.2673   19.5188 C.ar    1  UNL1        0.0956
     28 C          -7.2130  -21.4598   18.7926 C.ar    1  UNL1        0.1264
     29 N          -8.6964  -21.2806   18.6607 N.ar    1  UNL1       -0.1674
     30 C         -10.4466  -19.4014   19.4028 C.3     1  UNL1        0.1541
     31 C         -10.9366  -17.4190   19.9775 C.3     1  UNL1        0.0314
     32 C         -10.8984  -18.7468   20.6745 C.3     1  UNL1        0.1110
     33 C         -10.8603  -20.0744   21.3715 C.3     1  UNL1        0.0314
     34 O         -11.3503  -18.0921   21.9463 O.3     1  UNL1       -0.3848
     35 H         -11.4710  -17.1415   21.7955 H       1  UNL1        0.2103
@<TRIPOS>BOND
     1    31    32    1
     2    32    33    1
     3    32    34    1
     4    32    30    1
     5    30    25    1
     6    25    26   ar
     7    26    27   ar
     8    27    20    1
     9    20    21   ar
    10    21    22   ar
    11    22     1    1
    12     1     5    1
    13     5     6   ar
    14     6     7   ar
    15     7     8   ar
    16     8    11    1
    17    11    12   ar
    18    12    13   ar
    19    13    14   ar
    20    14    15    1
    21    14    16   ar
    22    16    17   ar
    23     8     9   ar
    24     9    10   ar
    25     1     2    1
    26     2     3    1
    27     3     4    1
    28    22    23   ar
    29    23    24   ar
    30    27    28   ar
    31    28    29   ar
    32    29    25   ar
    33    24    20   ar
    34     4     1    1
    35    10     5   ar
    36    17    11   ar
    37    34    35    1
    38    15    18    1
    39    15    19    1
@<TRIPOS>MOLECULE
*****
 35 39 0 0 0
SMALL
GASTEIGER

@<TRIPOS>ATOM
      1 C           8.3506   -5.9897   24.7462 C.3     1  UNL1        0.0744
      2 C           8.4402   -7.1884   23.8491 C.3     1  UNL1        0.0113
      3 C           8.9650   -8.0050   24.9926 C.3     1  UNL1        0.0015
      4 C           8.8754   -6.8063   25.8898 C.3     1  UNL1        0.0113
      5 C           7.8258   -5.1730   23.6027 C.ar    1  UNL1       -0.0159
      6 C           8.6662   -4.9724   22.3765 C.ar    1  UNL1       -0.0039
      7 C           8.1413   -4.1557   21.2330 C.ar    1  UNL1       -0.0002
      8 C           6.7762   -3.5397   21.3157 C.ar    1  UNL1        0.0030
      9 C           5.9359   -3.7403   22.5419 C.ar    1  UNL1       -0.0002
     10 C           6.4607   -4.5569   23.6853 C.ar    1  UNL1       -0.0039
     11 C           6.2514   -2.7230   20.1721 C.ar    1  UNL1        0.0384
     12 C           5.6094   -3.4014   18.9984 C.ar    1  UNL1        0.1033
     13 N           5.0846   -2.5848   17.8549 N.ar    1  UNL1       -0.2125
     14 C           5.2018   -1.0896   17.8850 C.ar    1  UNL1        0.2137
     15 N           4.6771   -0.2730   16.7415 N.pl3   1  UNL1       -0.3274
     16 N           5.8439   -0.4112   19.0588 N.ar    1  UNL1       -0.2125
     17 C           6.3686   -1.2279   20.2023 C.ar    1  UNL1        0.1033
     18 H           4.2557   -0.7182   15.9712 H       1  UNL1        0.1452
     19 H           4.7540    0.7083   16.7614 H       1  UNL1        0.1452
     20 C           7.4806   -3.2076   27.3093 C.ar    1  UNL1        0.2628
     21 N           7.1688   -4.5093   26.6323 N.ar    1  UNL1       -0.1907
     22 C           8.2610   -4.7909   25.6434 C.ar    1  UNL1        0.1837
     23 N           9.2479   -3.6632   25.7092 N.ar    1  UNL1       -0.0599
     24 O           8.7656   -2.6846   26.7388 O.2     1  UNL1       -0.3326
     25 N           5.1058   -1.0493   29.4925 N.ar    1  UNL1       -0.2468
     26 C           5.7241   -1.3848   28.1677 C.ar    1  UNL1        0.1015
     27 C           6.6529   -2.5453   28.3703 C.ar    1  UNL1        0.0956
     28 C           6.6085   -2.9269   29.8203 C.ar    1  UNL1        0.1264
     29 N           5.6523   -2.0023   30.5139 N.ar    1  UNL1       -0.1674
     30 C           4.1148    0.0468   29.7507 C.3     1  UNL1        0.1541
     31 C           2.8265   -0.0067   31.4353 C.3     1  UNL1        0.0314
     32 C           2.6687   -0.2859   29.9699 C.3     1  UNL1        0.1110
     33 C           2.5108   -0.5650   28.5046 C.3     1  UNL1        0.0314
     34 O           1.2225   -0.6185   30.1890 O.3     1  UNL1       -0.3848
     35 H           1.0070   -0.5200   31.1296 H       1  UNL1        0.2103
@<TRIPOS>BOND
     1    31    32    1
     2    32    33    1
     3    32    34    1
     4    32    30    1
     5    30    25    1
     6    25    26   ar
     7    26    27   ar
     8    27    20    1
     9    20    21   ar
    10    21    22   ar
    11    22     1    1
    12     1     5    1
    13     5     6   ar
    14     6     7   ar
    15     7     8   ar
    16     8    11    1
    17    11    12   ar
    18    12    13   ar
    19    13    14   ar
    20    14    15    1
    21    14    16   ar
    22    16    17   ar
    23     8     9   ar
    24     9    10   ar
    25     1     2    1
    26     2     3    1
    27     3     4    1
    28    22    23   ar
    29    23    24   ar
    30    27    28   ar
    31    28    29   ar
    32    29    25   ar
    33    24    20   ar
    34     4     1    1
    35    10     5   ar
    36    17    11   ar
    37    34    35    1
    38    15    18    1
    39    15    19    1
@<TRIPOS>MOLECULE
*****
 35 39 0 0 0
SMALL
GASTEIGER

@<TRIPOS>ATOM
      1 C          -5.1343    4.0196   19.9137 C.3     1  UNL1        0.0744
      2 C          -6.6141    4.2537   19.9862 C.3     1  UNL1        0.0113
      3 C          -6.7627    3.7497   18.5813 C.3     1  UNL1        0.0015
      4 C          -5.2829    3.5156   18.5088 C.3     1  UNL1        0.0113
      5 C          -4.9856    4.5236   21.3187 C.ar    1  UNL1       -0.0159
      6 C          -5.5513    3.7348   22.4623 C.ar    1  UNL1       -0.0039
      7 C          -5.4026    4.2388   23.8672 C.ar    1  UNL1       -0.0002
      8 C          -4.6883    5.5317   24.1285 C.ar    1  UNL1        0.0030
      9 C          -4.1226    6.3205   22.9849 C.ar    1  UNL1       -0.0002
     10 C          -4.2713    5.8164   21.5800 C.ar    1  UNL1       -0.0039
     11 C          -4.5396    6.0357   25.5335 C.ar    1  UNL1        0.0384
     12 C          -3.3523    6.8722   25.9085 C.ar    1  UNL1        0.1033
     13 N          -3.2037    7.3762   27.3135 N.ar    1  UNL1       -0.2125
     14 C          -4.2423    7.0437   28.3434 C.ar    1  UNL1        0.2137
     15 N          -4.0937    7.5477   29.7483 N.pl3   1  UNL1       -0.3274
     16 N          -5.4296    6.2072   27.9683 N.ar    1  UNL1       -0.2125
     17 C          -5.5783    5.7032   26.5634 C.ar    1  UNL1        0.1033
     18 H          -3.3145    8.0967   29.9945 H       1  UNL1        0.1452
     19 H          -4.7754    7.3295   30.4243 H       1  UNL1        0.1452
     20 C          -1.4291    2.9246   20.2858 C.ar    1  UNL1        0.2628
     21 N          -2.8686    2.8381   20.6986 N.ar    1  UNL1       -0.1907
     22 C          -3.6545    3.7854   19.8412 C.ar    1  UNL1        0.1837
     23 N          -2.7007    4.4575   18.8985 N.ar    1  UNL1       -0.0599
     24 O          -1.3253    3.9255   19.1733 O.2     1  UNL1       -0.3326
     25 N           1.3799    0.4303   21.2615 N.ar    1  UNL1       -0.2468
     26 C           0.2528    0.8487   20.3646 C.ar    1  UNL1        0.1015
     27 C          -0.2930    2.1470   20.8810 C.ar    1  UNL1        0.0956
     28 C           0.4967    2.5309   22.0971 C.ar    1  UNL1        0.1264
     29 N           1.5307    1.4699   22.3323 N.ar    1  UNL1       -0.1674
     30 C           2.2106   -0.8100   21.1137 C.3     1  UNL1        0.1541
     31 C           3.8068   -0.0399   19.9479 C.3     1  UNL1        0.0314
     32 C           3.7005   -0.7380   21.2713 C.3     1  UNL1        0.1110
     33 C           3.5942   -1.4362   22.5947 C.3     1  UNL1        0.0314
     34 O           5.1905   -0.6661   21.4290 O.3     1  UNL1       -0.3848
     35 H           5.5765   -0.2249   20.6561 H       1  UNL1        0.2103
@<TRIPOS>BOND
     1    31    32    1
     2    32    33    1
     3    32    34    1
     4    32    30    1
     5    30    25    1
     6    25    26   ar
     7    26    27   ar
     8    27    20    1
     9    20    21   ar
    10    21    22   ar
    11    22     1    1
    12     1     5    1
    13     5     6   ar
    14     6     7   ar
    15     7     8   ar
    16     8    11    1
    17    11    12   ar
    18    12    13   ar
    19    13    14   ar
    20    14    15    1
    21    14    16   ar
    22    16    17   ar
    23     8     9   ar
    24     9    10   ar
    25     1     2    1
    26     2     3    1
    27     3     4    1
    28    22    23   ar
    29    23    24   ar
    30    27    28   ar
    31    28    29   ar
    32    29    25   ar
    33    24    20   ar
    34     4     1    1
    35    10     5   ar
    36    17    11   ar
    37    34    35    1
    38    15    18    1
    39    15    19    1
@<TRIPOS>MOLECULE
*****
 35 39 0 0 0
SMALL
GASTEIGER

@<TRIPOS>ATOM
      1 C           6.5888   -3.4945   31.0789 C.3     1  UNL1        0.0744
      2 C           6.7449   -4.5756   32.1069 C.3     1  UNL1        0.0113
      3 C           7.2291   -5.5166   31.0438 C.3     1  UNL1        0.0015
      4 C           7.0730   -4.4354   30.0158 C.3     1  UNL1        0.0113
      5 C           6.1047   -2.5535   32.1420 C.ar    1  UNL1       -0.0159
      6 C           4.7801   -2.7889   32.8053 C.ar    1  UNL1       -0.0039
      7 C           4.2960   -1.8479   33.8684 C.ar    1  UNL1       -0.0002
      8 C           5.1364   -0.6715   34.2681 C.ar    1  UNL1        0.0030
      9 C           6.4610   -0.4361   33.6047 C.ar    1  UNL1       -0.0002
     10 C           6.9451   -1.3771   32.5417 C.ar    1  UNL1       -0.0039
     11 C           4.6522    0.2695   35.3312 C.ar    1  UNL1        0.0384
     12 C           3.8177    1.4584   34.9570 C.ar    1  UNL1        0.1033
     13 N           3.3335    2.3994   36.0201 N.ar    1  UNL1       -0.2125
     14 C           3.6839    2.1515   37.4574 C.ar    1  UNL1        0.2137
     15 N           3.1998    3.0924   38.5204 N.pl3   1  UNL1       -0.3274
     16 N           4.5185    0.9626   37.8315 N.ar    1  UNL1       -0.2125
     17 C           5.0027    0.0216   36.7684 C.ar    1  UNL1        0.1033
     18 H           2.6520    3.8728   38.2749 H       1  UNL1        0.1452
     19 H           3.4298    2.9297   39.4638 H       1  UNL1        0.1452
     20 C           5.4615   -0.7022   28.6298 C.ar    1  UNL1        0.2628
     21 N           5.1582   -1.7011   29.7069 N.ar    1  UNL1       -0.1907
     22 C           6.4328   -2.4134   30.0509 C.ar    1  UNL1        0.1837
     23 N           7.5238   -1.8546   29.1864 N.ar    1  UNL1       -0.0599
     24 O           6.9236   -0.7970   28.3081 O.2     1  UNL1       -0.3326
     25 N           2.5269    1.6245   27.6105 N.ar    1  UNL1       -0.2468
     26 C           3.1971    0.7178   28.5998 C.ar    1  UNL1        0.1015
     27 C           4.4759    0.2281   27.9873 C.ar    1  UNL1        0.0956
     28 C           4.5959    0.8321   26.6196 C.ar    1  UNL1        0.1264
     29 N           3.3913    1.6952   26.3867 N.ar    1  UNL1       -0.1674
     30 C           1.2213    2.3357   27.8100 C.3     1  UNL1        0.1541
     31 C           0.1610    1.7638   29.5561 C.3     1  UNL1        0.0314
     32 C          -0.0268    1.5498   28.0833 C.3     1  UNL1        0.1110
     33 C          -0.2145    1.3359   26.6106 C.3     1  UNL1        0.0314
     34 O          -1.2749    0.7639   28.3566 O.3     1  UNL1       -0.3848
     35 H          -1.4295    0.7249   29.3134 H       1  UNL1        0.2103
@<TRIPOS>BOND
     1    31    32    1
     2    32    33    1
     3    32    34    1
     4    32    30    1
     5    30    25    1
     6    25    26   ar
     7    26    27   ar
     8    27    20    1
     9    20    21   ar
    10    21    22   ar
    11    22     1    1
    12     1     5    1
    13     5     6   ar
    14     6     7   ar
    15     7     8   ar
    16     8    11    1
    17    11    12   ar
    18    12    13   ar
    19    13    14   ar
    20    14    15    1
    21    14    16   ar
    22    16    17   ar
    23     8     9   ar
    24     9    10   ar
    25     1     2    1
    26     2     3    1
    27     3     4    1
    28    22    23   ar
    29    23    24   ar
    30    27    28   ar
    31    28    29   ar
    32    29    25   ar
    33    24    20   ar
    34     4     1    1
    35    10     5   ar
    36    17    11   ar
    37    34    35    1
    38    15    18    1
    39    15    19    1
