@<TRIPOS>MOLECULE
*****
 23 23 0 0 0
SMALL
GASTEIGER

@<TRIPOS>ATOM
      1 C          -6.6253  -19.5737   21.2178 C.3     1  UNL1        0.2969
      2 F          -6.7288  -20.5507   22.3512 F       1  UNL1       -0.1981
      3 F          -6.5218  -18.5966   20.0845 F       1  UNL1       -0.1981
      4 C         -10.4769  -19.6402   22.1722 C.ar    1  UNL1        0.1384
      5 C         -11.1070  -19.5686   20.8129 C.ar    1  UNL1        0.0369
      6 C         -10.2432  -19.4987   19.5885 C.ar    1  UNL1        0.0030
      7 C          -8.7494  -19.5004   19.7235 C.ar    1  UNL1        0.0012
      8 C          -8.1192  -19.5720   21.0828 C.ar    1  UNL1        0.0422
      9 C          -8.9830  -19.6419   22.3072 C.ar    1  UNL1        0.0379
     10 O         -11.3407  -19.7101   23.3966 O.3     1  UNL1       -0.4755
     11 C         -11.8800  -18.4505   24.0068 C.3     1  UNL1        0.2054
     12 C         -12.9761  -17.6929   23.3179 C.3     1  UNL1        0.0473
     13 C         -11.2146  -16.1070   22.2537 C.3     1  UNL1        0.0001
     14 C         -12.6462  -16.4950   22.4774 C.3     1  UNL1        0.0038
     15 C          -5.1314  -19.5754   21.3528 C.3     1  UNL1        0.1409
     16 N          -4.4990  -19.3362   22.6918 N.3     1  UNL1       -0.2850
     17 H          -4.3558  -20.2520   23.1176 H       1  UNL1        0.1239
     18 C          -3.1918  -18.6064   22.7843 C.3     1  UNL1        0.1553
     19 C          -2.1331  -18.8296   21.7454 C.2     1  UNL1        0.2419
     20 O          -1.7153  -20.2253   21.3881 O.2     1  UNL1       -0.2734
     21 N          -1.4922  -17.6572   21.0637 N.am    1  UNL1       -0.2749
     22 C          -0.4335  -17.8804   20.0248 C.3     1  UNL1        0.1149
     23 C          -1.9100  -16.2616   21.4210 C.3     1  UNL1        0.1149
@<TRIPOS>BOND
     1    13    14    1
     2    14    12    1
     3    12    11    1
     4    11    10    1
     5    10     4    1
     6     4     5   ar
     7     5     6   ar
     8     6     7   ar
     9     7     8   ar
    10     8     1    1
    11     1     2    1
    12     1     3    1
    13     1    15    1
    14    15    16    1
    15    16    18    1
    16    18    19    1
    17    19    20    2
    18    19    21   am
    19    21    22    1
    20    21    23    1
    21     8     9   ar
    22     9     4   ar
    23    16    17    1
@<TRIPOS>MOLECULE
*****
 23 23 0 0 0
SMALL
GASTEIGER

@<TRIPOS>ATOM
      1 C          -6.8447  -19.1414   22.3796 C.3     1  UNL1        0.2969
      2 F          -6.7033  -17.6597   22.5647 F       1  UNL1       -0.1981
      3 F          -6.9861  -20.6232   22.1944 F       1  UNL1       -0.1981
      4 C         -10.4440  -17.6994   23.2253 C.ar    1  UNL1        0.1384
      5 C         -11.1062  -18.9131   23.8068 C.ar    1  UNL1        0.0369
      6 C         -10.3479  -20.2030   23.9125 C.ar    1  UNL1        0.0030
      7 C          -8.9275  -20.2791   23.4368 C.ar    1  UNL1        0.0012
      8 C          -8.2653  -19.0654   22.8553 C.ar    1  UNL1        0.0422
      9 C          -9.0235  -17.7755   22.7496 C.ar    1  UNL1        0.0379
     10 O         -11.2023  -16.4095   23.1195 O.3     1  UNL1       -0.4755
     11 C         -11.9329  -16.0705   21.8541 C.3     1  UNL1        0.2054
     12 C         -12.2493  -17.1476   20.8593 C.3     1  UNL1        0.0473
     13 C         -10.6718  -18.8499   19.6915 C.3     1  UNL1        0.0001
     14 C         -11.2690  -17.4763   19.7725 C.3     1  UNL1        0.0038
     15 C          -5.4242  -19.2175   21.9038 C.3     1  UNL1        0.1409
     16 N          -5.0925  -18.8926   20.4775 N.3     1  UNL1       -0.2850
     17 H          -4.9063  -17.8905   20.4394 H       1  UNL1        0.1239
     18 C          -3.9391  -19.5734   19.8019 C.3     1  UNL1        0.1553
     19 C          -2.5363  -19.3026   20.2587 C.2     1  UNL1        0.2419
     20 O          -1.9382  -20.1168   21.3675 O.2     1  UNL1       -0.2734
     21 N          -1.7315  -18.2175   19.6068 N.am    1  UNL1       -0.2749
     22 C          -0.3287  -17.9467   20.0637 C.3     1  UNL1        0.1149
     23 C          -2.3295  -17.4033   18.4981 C.3     1  UNL1        0.1149
@<TRIPOS>BOND
     1    13    14    1
     2    14    12    1
     3    12    11    1
     4    11    10    1
     5    10     4    1
     6     4     5   ar
     7     5     6   ar
     8     6     7   ar
     9     7     8   ar
    10     8     1    1
    11     1     2    1
    12     1     3    1
    13     1    15    1
    14    15    16    1
    15    16    18    1
    16    18    19    1
    17    19    20    2
    18    19    21   am
    19    21    22    1
    20    21    23    1
    21     8     9   ar
    22     9     4   ar
    23    16    17    1
@<TRIPOS>MOLECULE
*****
 23 23 0 0 0
SMALL
GASTEIGER

@<TRIPOS>ATOM
      1 C          -6.9222  -19.8992   21.2835 C.3     1  UNL1        0.2969
      2 F          -7.2459  -18.9577   20.1615 F       1  UNL1       -0.1981
      3 F          -6.5985  -20.8407   22.4054 F       1  UNL1       -0.1981
      4 C          -7.8594  -16.8055   23.5858 C.ar    1  UNL1        0.1384
      5 C          -9.1736  -17.2590   24.1488 C.ar    1  UNL1        0.0369
      6 C          -9.7374  -18.5926   23.7568 C.ar    1  UNL1        0.0030
      7 C          -8.9870  -19.4726   22.8017 C.ar    1  UNL1        0.0012
      8 C          -7.6727  -19.0191   22.2386 C.ar    1  UNL1        0.0422
      9 C          -7.1089  -17.6855   22.6307 C.ar    1  UNL1        0.0379
     10 O          -7.2956  -15.4719   23.9778 O.3     1  UNL1       -0.4755
     11 C          -5.9720  -15.3940   24.6791 C.3     1  UNL1        0.2054
     12 C          -5.9198  -15.1413   26.1567 C.3     1  UNL1        0.0473
     13 C          -8.2472  -15.3369   27.2948 C.3     1  UNL1        0.0001
     14 C          -6.8602  -15.8642   27.0749 C.3     1  UNL1        0.0038
     15 C          -6.1717  -20.7793   20.3284 C.3     1  UNL1        0.1409
     16 N          -4.7005  -20.5753   20.1186 N.3     1  UNL1       -0.2850
     17 H          -4.5446  -20.5714   19.1106 H       1  UNL1        0.1239
     18 C          -4.0275  -19.3514   20.6657 C.3     1  UNL1        0.1553
     19 C          -2.5303  -19.2605   20.6768 C.2     1  UNL1        0.2419
     20 O          -1.7315  -20.1502   21.5826 O.2     1  UNL1       -0.2734
     21 N          -1.8318  -18.2800   19.7820 N.am    1  UNL1       -0.2749
     22 C          -0.3346  -18.1890   19.7931 C.3     1  UNL1        0.1149
     23 C          -2.6306  -17.3903   18.8762 C.3     1  UNL1        0.1149
@<TRIPOS>BOND
     1    13    14    1
     2    14    12    1
     3    12    11    1
     4    11    10    1
     5    10     4    1
     6     4     5   ar
     7     5     6   ar
     8     6     7   ar
     9     7     8   ar
    10     8     1    1
    11     1     2    1
    12     1     3    1
    13     1    15    1
    14    15    16    1
    15    16    18    1
    16    18    19    1
    17    19    20    2
    18    19    21   am
    19    21    22    1
    20    21    23    1
    21     8     9   ar
    22     9     4   ar
    23    16    17    1
@<TRIPOS>MOLECULE
*****
 23 23 0 0 0
SMALL
GASTEIGER

@<TRIPOS>ATOM
      1 C          -6.6570  -19.1844   21.4570 C.3     1  UNL1        0.2969
      2 F          -6.4752  -20.3232   20.4978 F       1  UNL1       -0.1981
      3 F          -6.8389  -18.0457   22.4162 F       1  UNL1       -0.1981
      4 C         -10.3781  -17.8378   21.1558 C.ar    1  UNL1        0.1384
      5 C         -10.8459  -18.5689   19.9325 C.ar    1  UNL1        0.0369
      6 C          -9.9175  -19.5051   19.2173 C.ar    1  UNL1        0.0030
      7 C          -8.5212  -19.7103   19.7254 C.ar    1  UNL1        0.0012
      8 C          -8.0534  -18.9792   20.9487 C.ar    1  UNL1        0.0422
      9 C          -8.9818  -18.0430   21.6640 C.ar    1  UNL1        0.0379
     10 O         -11.3065  -16.9016   21.8710 O.3     1  UNL1       -0.4755
     11 C         -12.6456  -17.3871   22.3412 C.3     1  UNL1        0.2054
     12 C         -12.7489  -18.2067   23.5932 C.3     1  UNL1        0.0473
     13 C         -10.8105  -19.8057   24.2533 C.3     1  UNL1        0.0001
     14 C         -11.5208  -18.4934   24.4055 C.3     1  UNL1        0.0038
     15 C          -5.2608  -19.3895   21.9652 C.3     1  UNL1        0.1409
     16 N          -4.5047  -18.2412   22.5650 N.3     1  UNL1       -0.2850
     17 H          -4.9561  -18.0235   23.4534 H       1  UNL1        0.1239
     18 C          -3.0373  -18.3746   22.8462 C.3     1  UNL1        0.1553
     19 C          -2.0952  -18.7641   21.7459 C.2     1  UNL1        0.2419
     20 O          -1.8417  -20.2134   21.4536 O.2     1  UNL1       -0.2734
     21 N          -1.4067  -17.7045   20.9379 N.am    1  UNL1       -0.2749
     22 C          -0.4646  -18.0940   19.8375 C.3     1  UNL1        0.1149
     23 C          -1.6602  -16.2553   21.2302 C.3     1  UNL1        0.1149
@<TRIPOS>BOND
     1    13    14    1
     2    14    12    1
     3    12    11    1
     4    11    10    1
     5    10     4    1
     6     4     5   ar
     7     5     6   ar
     8     6     7   ar
     9     7     8   ar
    10     8     1    1
    11     1     2    1
    12     1     3    1
    13     1    15    1
    14    15    16    1
    15    16    18    1
    16    18    19    1
    17    19    20    2
    18    19    21   am
    19    21    22    1
    20    21    23    1
    21     8     9   ar
    22     9     4   ar
    23    16    17    1
@<TRIPOS>MOLECULE
*****
 23 23 0 0 0
SMALL
GASTEIGER

@<TRIPOS>ATOM
      1 C          -7.6659  -19.4547   21.9184 C.3     1  UNL1        0.2969
      2 F          -7.7344  -18.2735   20.9965 F       1  UNL1       -0.1981
      3 F          -7.5973  -20.6359   22.8404 F       1  UNL1       -0.1981
      4 C          -3.7057  -19.2281   21.7924 C.ar    1  UNL1        0.1384
      5 C          -3.4028  -20.1796   20.6730 C.ar    1  UNL1        0.0369
      6 C          -4.5210  -20.8895   19.9688 C.ar    1  UNL1        0.0030
      7 C          -5.9419  -20.6478   20.3839 C.ar    1  UNL1        0.0012
      8 C          -6.2448  -19.6964   21.5032 C.ar    1  UNL1        0.0422
      9 C          -5.1267  -18.9865   22.2075 C.ar    1  UNL1        0.0379
     10 O          -2.5876  -18.5183   22.4966 O.3     1  UNL1       -0.4755
     11 C          -2.5071  -17.0210   22.4570 C.3     1  UNL1        0.2054
     12 C          -1.7692  -16.3387   21.3434 C.3     1  UNL1        0.0473
     13 C           0.0162  -17.6843   20.0199 C.3     1  UNL1        0.0001
     14 C          -1.3674  -17.1146   20.1241 C.3     1  UNL1        0.0038
     15 C          -9.0868  -19.2131   22.3336 C.3     1  UNL1        0.1409
     16 N          -9.3871  -18.2964   23.4823 N.3     1  UNL1       -0.2850
     17 H          -8.4894  -17.9791   23.8482 H       1  UNL1        0.1239
     18 C         -10.2237  -17.0704   23.2647 C.3     1  UNL1        0.1553
     19 C         -10.2874  -16.4374   21.9063 C.2     1  UNL1        0.2419
     20 O          -9.1484  -15.5916   21.4189 O.2     1  UNL1       -0.2734
     21 N         -11.4900  -16.6499   21.0355 N.am    1  UNL1       -0.2749
     22 C         -11.5537  -16.0169   19.6771 C.3     1  UNL1        0.1149
     23 C         -12.6289  -17.4956   21.5229 C.3     1  UNL1        0.1149
@<TRIPOS>BOND
     1    13    14    1
     2    14    12    1
     3    12    11    1
     4    11    10    1
     5    10     4    1
     6     4     5   ar
     7     5     6   ar
     8     6     7   ar
     9     7     8   ar
    10     8     1    1
    11     1     2    1
    12     1     3    1
    13     1    15    1
    14    15    16    1
    15    16    18    1
    16    18    19    1
    17    19    20    2
    18    19    21   am
    19    21    22    1
    20    21    23    1
    21     8     9   ar
    22     9     4   ar
    23    16    17    1
@<TRIPOS>MOLECULE
*****
 23 23 0 0 0
SMALL
GASTEIGER

@<TRIPOS>ATOM
      1 C          -7.2325  -19.1841   21.3230 C.3     1  UNL1        0.2969
      2 F          -8.4105  -19.4121   20.4229 F       1  UNL1       -0.1981
      3 F          -6.0545  -18.9560   22.2231 F       1  UNL1       -0.1981
      4 C         -10.3203  -17.9665   23.4987 C.ar    1  UNL1        0.1384
      5 C          -9.7934  -16.6697   24.0377 C.ar    1  UNL1        0.0369
      6 C          -8.4129  -16.2109   23.6718 C.ar    1  UNL1        0.0030
      7 C          -7.5593  -17.0490   22.7670 C.ar    1  UNL1        0.0012
      8 C          -8.0861  -18.3459   22.2280 C.ar    1  UNL1        0.0422
      9 C          -9.4666  -18.8046   22.5938 C.ar    1  UNL1        0.0379
     10 O         -11.7007  -18.4252   23.8645 O.3     1  UNL1       -0.4755
     11 C         -12.8928  -17.8581   23.1524 C.3     1  UNL1        0.2054
     12 C         -12.8819  -17.7276   21.6582 C.3     1  UNL1        0.0473
     13 C         -11.3009  -16.5189   19.9880 C.3     1  UNL1        0.0001
     14 C         -12.3887  -16.4632   21.0193 C.3     1  UNL1        0.0038
     15 C          -6.3788  -20.0222   20.4182 C.3     1  UNL1        0.1409
     16 N          -4.9341  -20.2512   20.7501 N.3     1  UNL1       -0.2850
     17 H          -4.8180  -21.2560   20.8820 H       1  UNL1        0.1239
     18 C          -3.8660  -19.8140   19.7919 C.3     1  UNL1        0.1553
     19 C          -2.5154  -19.4126   20.3065 C.2     1  UNL1        0.2419
     20 O          -1.8725  -20.1934   21.4143 O.2     1  UNL1       -0.2734
     21 N          -1.8077  -18.2305   19.7134 N.am    1  UNL1       -0.2749
     22 C          -0.4571  -17.8291   20.2280 C.3     1  UNL1        0.1149
     23 C          -2.4506  -17.4498   18.6057 C.3     1  UNL1        0.1149
@<TRIPOS>BOND
     1    13    14    1
     2    14    12    1
     3    12    11    1
     4    11    10    1
     5    10     4    1
     6     4     5   ar
     7     5     6   ar
     8     6     7   ar
     9     7     8   ar
    10     8     1    1
    11     1     2    1
    12     1     3    1
    13     1    15    1
    14    15    16    1
    15    16    18    1
    16    18    19    1
    17    19    20    2
    18    19    21   am
    19    21    22    1
    20    21    23    1
    21     8     9   ar
    22     9     4   ar
    23    16    17    1
@<TRIPOS>MOLECULE
*****
 23 23 0 0 0
SMALL
GASTEIGER

@<TRIPOS>ATOM
      1 C          -8.3433  -19.3867   20.8050 C.3     1  UNL1        0.2969
      2 F          -8.5107  -19.5183   22.2898 F       1  UNL1       -0.1981
      3 F          -8.1760  -19.2550   19.3202 F       1  UNL1       -0.1981
      4 C          -4.6310  -18.9361   22.1339 C.ar    1  UNL1        0.1384
      5 C          -3.8970  -19.9092   21.2598 C.ar    1  UNL1        0.0369
      6 C          -4.6450  -20.7081   20.2340 C.ar    1  UNL1        0.0030
      7 C          -6.1271  -20.5339   20.0824 C.ar    1  UNL1        0.0012
      8 C          -6.8611  -19.5609   20.9566 C.ar    1  UNL1        0.0422
      9 C          -6.1131  -18.7620   21.9824 C.ar    1  UNL1        0.0379
     10 O          -3.8830  -18.1372   23.1597 O.3     1  UNL1       -0.4755
     11 C          -2.4682  -17.7147   22.8957 C.3     1  UNL1        0.2054
     12 C          -2.1842  -16.6158   21.9149 C.3     1  UNL1        0.0473
     13 C          -2.0877  -17.3947   19.4382 C.3     1  UNL1        0.0001
     14 C          -1.3927  -16.9043   20.6738 C.3     1  UNL1        0.0038
     15 C          -9.8254  -19.2125   20.6534 C.3     1  UNL1        0.1409
     16 N         -10.3754  -17.9489   20.0610 N.3     1  UNL1       -0.2850
     17 H         -11.2152  -18.2077   19.5432 H       1  UNL1        0.1239
     18 C         -10.7527  -16.8042   20.9540 C.3     1  UNL1        0.1553
     19 C         -10.5941  -16.9286   22.4404 C.2     1  UNL1        0.2419
     20 O         -11.6868  -17.5458   23.2621 O.2     1  UNL1       -0.2734
     21 N          -9.3430  -16.4358   23.1050 N.am    1  UNL1       -0.2749
     22 C          -9.1844  -16.5603   24.5914 C.3     1  UNL1        0.1149
     23 C          -8.2504  -15.8187   22.2832 C.3     1  UNL1        0.1149
@<TRIPOS>BOND
     1    13    14    1
     2    14    12    1
     3    12    11    1
     4    11    10    1
     5    10     4    1
     6     4     5   ar
     7     5     6   ar
     8     6     7   ar
     9     7     8   ar
    10     8     1    1
    11     1     2    1
    12     1     3    1
    13     1    15    1
    14    15    16    1
    15    16    18    1
    16    18    19    1
    17    19    20    2
    18    19    21   am
    19    21    22    1
    20    21    23    1
    21     8     9   ar
    22     9     4   ar
    23    16    17    1
@<TRIPOS>MOLECULE
*****
 23 23 0 0 0
SMALL
GASTEIGER

@<TRIPOS>ATOM
      1 C          -6.8890  -19.7164   20.1936 C.3     1  UNL1        0.2969
      2 F          -7.3275  -18.3457   20.6165 F       1  UNL1       -0.1981
      3 F          -6.4506  -21.0871   19.7708 F       1  UNL1       -0.1981
      4 C          -4.1233  -18.3847   22.7091 C.ar    1  UNL1        0.1384
      5 C          -2.8952  -19.0441   22.1552 C.ar    1  UNL1        0.0369
      6 C          -2.9984  -19.9276   20.9474 C.ar    1  UNL1        0.0030
      7 C          -4.3296  -20.1517   20.2936 C.ar    1  UNL1        0.0012
      8 C          -5.5577  -19.4923   20.8475 C.ar    1  UNL1        0.0422
      9 C          -5.4546  -18.6088   22.0553 C.ar    1  UNL1        0.0379
     10 O          -4.0202  -17.5012   23.9169 O.3     1  UNL1       -0.4755
     11 C          -4.5892  -16.1138   23.8821 C.3     1  UNL1        0.2054
     12 C          -5.5517  -15.6710   24.9439 C.3     1  UNL1        0.0473
     13 C          -8.0767  -15.4659   25.5204 C.3     1  UNL1        0.0001
     14 C          -6.9398  -15.2446   24.5674 C.3     1  UNL1        0.0038
     15 C          -8.2202  -19.9405   19.5398 C.3     1  UNL1        0.1409
     16 N          -9.2392  -18.8400   19.5166 N.3     1  UNL1       -0.2850
     17 H          -9.1684  -18.3924   18.6028 H       1  UNL1        0.1239
     18 C         -10.6895  -19.1560   19.7329 C.3     1  UNL1        0.1553
     19 C         -11.4933  -18.3556   20.7144 C.2     1  UNL1        0.2419
     20 O         -12.2298  -17.1309   20.2587 O.2     1  UNL1       -0.2734
     21 N         -11.5604  -18.7799   22.1516 N.am    1  UNL1       -0.2749
     22 C         -12.3642  -17.9795   23.1331 C.3     1  UNL1        0.1149
     23 C         -10.8239  -20.0046   22.6072 C.3     1  UNL1        0.1149
@<TRIPOS>BOND
     1    13    14    1
     2    14    12    1
     3    12    11    1
     4    11    10    1
     5    10     4    1
     6     4     5   ar
     7     5     6   ar
     8     6     7   ar
     9     7     8   ar
    10     8     1    1
    11     1     2    1
    12     1     3    1
    13     1    15    1
    14    15    16    1
    15    16    18    1
    16    18    19    1
    17    19    20    2
    18    19    21   am
    19    21    22    1
    20    21    23    1
    21     8     9   ar
    22     9     4   ar
    23    16    17    1
@<TRIPOS>MOLECULE
*****
 23 23 0 0 0
SMALL
GASTEIGER

@<TRIPOS>ATOM
      1 C          -7.2494  -19.7405   21.0763 C.3     1  UNL1        0.2969
      2 F          -6.8965  -20.2614   22.4379 F       1  UNL1       -0.1981
      3 F          -7.6023  -19.2196   19.7146 F       1  UNL1       -0.1981
      4 C          -9.1260  -17.0479   23.3075 C.ar    1  UNL1        0.1384
      5 C         -10.5468  -17.2644   22.8780 C.ar    1  UNL1        0.0369
      6 C         -10.8684  -18.3063   21.8479 C.ar    1  UNL1        0.0030
      7 C          -9.7693  -19.1317   21.2474 C.ar    1  UNL1        0.0012
      8 C          -8.3486  -18.9151   21.6768 C.ar    1  UNL1        0.0422
      9 C          -8.0269  -17.8733   22.7069 C.ar    1  UNL1        0.0379
     10 O          -8.8043  -16.0060   24.3375 O.3     1  UNL1       -0.4755
     11 C          -8.6664  -16.3946   25.7797 C.3     1  UNL1        0.2054
     12 C          -8.0163  -15.4543   26.7509 C.3     1  UNL1        0.0473
     13 C          -5.5415  -15.2872   25.9782 C.3     1  UNL1        0.0001
     14 C          -6.5513  -15.5780   27.0485 C.3     1  UNL1        0.0038
     15 C          -6.1503  -20.5659   20.4757 C.3     1  UNL1        0.1409
     16 N          -4.8224  -19.9385   20.1704 N.3     1  UNL1       -0.2850
     17 H          -5.0158  -19.0254   19.7588 H       1  UNL1        0.1239
     18 C          -3.8276  -19.7155   21.2707 C.3     1  UNL1        0.1553
     19 C          -3.5550  -18.3258   21.7651 C.2     1  UNL1        0.2419
     20 O          -4.5193  -17.6606   22.7021 O.2     1  UNL1       -0.2734
     21 N          -2.3184  -17.6014   21.3228 N.am    1  UNL1       -0.2749
     22 C          -2.0458  -16.2117   21.8172 C.3     1  UNL1        0.1149
     23 C          -1.3542  -18.2667   20.3859 C.3     1  UNL1        0.1149
@<TRIPOS>BOND
     1    13    14    1
     2    14    12    1
     3    12    11    1
     4    11    10    1
     5    10     4    1
     6     4     5   ar
     7     5     6   ar
     8     6     7   ar
     9     7     8   ar
    10     8     1    1
    11     1     2    1
    12     1     3    1
    13     1    15    1
    14    15    16    1
    15    16    18    1
    16    18    19    1
    17    19    20    2
    18    19    21   am
    19    21    22    1
    20    21    23    1
    21     8     9   ar
    22     9     4   ar
    23    16    17    1
