@<TRIPOS>MOLECULE
*****
 31 34 0 0 0
SMALL
GASTEIGER

@<TRIPOS>ATOM
      1 N           6.0983   -2.6572   32.2949 N.pl3   1  UNL1       -0.3044
      2 C           4.7212   -2.7361   32.8842 C.3     1  UNL1        0.1123
      3 C           4.3100   -1.7759   33.9607 C.3     1  UNL1        0.1150
      4 N           5.2758   -0.7369   34.4480 N.pl3   1  UNL1       -0.2739
      5 C           6.6529   -0.6580   33.8587 C.3     1  UNL1        0.0954
      6 C           7.6189    0.3810   34.3460 C.3     1  UNL1        0.0233
      7 C           7.0642   -1.6182   32.7822 C.3     1  UNL1        0.1106
      8 C           7.3321   -5.5376   29.0652 C.ar    1  UNL1        0.1383
      9 C           7.4052   -5.9497   30.5056 C.ar    1  UNL1        0.0381
     10 C           6.9940   -4.9895   31.5821 C.ar    1  UNL1        0.0173
     11 C           6.5096   -3.6173   31.2183 C.ar    1  UNL1        0.0441
     12 C           6.4364   -3.2053   29.7779 C.ar    1  UNL1       -0.0055
     13 C           5.9520   -1.8331   29.4140 C.3     1  UNL1        0.0324
     14 C           6.8477   -4.1654   28.7013 C.ar    1  UNL1        0.0339
     15 O           7.7433   -6.4978   27.9886 O.3     1  UNL1       -0.4755
     16 C           8.4414   -8.9753   27.6356 C.3     1  UNL1        0.0512
     17 C           8.6403   -7.6541   28.3176 C.3     1  UNL1        0.2055
     18 C           4.8646    0.2232   35.5246 C.ar    1  UNL1        0.2593
     19 N           5.2552    0.1464   36.9708 N.ar    1  UNL1       -0.0399
     20 O           4.6225    1.3045   37.6840 O.2     1  UNL1       -0.3341
     21 C           3.8409    2.0970   36.6786 C.ar    1  UNL1        0.2534
     22 N           3.9905    1.4288   35.3440 N.ar    1  UNL1       -0.1764
     23 C           3.0488    3.3397   36.9585 C.3     1  UNL1        0.1281
     24 C           4.1800    4.1775   36.4406 C.3     1  UNL1        0.0272
     25 C           3.3880    5.4201   36.7205 C.3     1  UNL1        0.0043
     26 C           2.2566    4.5823   37.2385 C.3     1  UNL1        0.0272
     27 N           1.9175    2.5018   37.4764 N.am    1  UNL1       -0.2997
     28 C           1.7320    2.3230   38.9541 C.2     1  UNL1        0.2232
     29 C           0.6008    1.4852   39.4720 C.3     1  UNL1        0.0946
     30 O           2.6779    2.9820   39.9139 O.2     1  UNL1       -0.2751
     31 H           1.2967    2.0693   36.8465 H       1  UNL1        0.1498
@<TRIPOS>BOND
     1    16    17    1
     2    17    15    1
     3    15     8    1
     4     8     9   ar
     5     9    10   ar
     6    10    11   ar
     7    11     1    1
     8     1     2    1
     9     2     3    1
    10     3     4    1
    11     4    18    1
    12    18    19   ar
    13    19    20   ar
    14    20    21   ar
    15    21    23    1
    16    23    27    1
    17    27    28   am
    18    28    29    1
    19    28    30    2
    20    23    24    1
    21    24    25    1
    22    25    26    1
    23    21    22   ar
    24     4     5    1
    25     5     6    1
    26     5     7    1
    27    11    12   ar
    28    12    13    1
    29    12    14   ar
    30    14     8   ar
    31     7     1    1
    32    22    18   ar
    33    26    23    1
    34    27    31    1
@<TRIPOS>MOLECULE
*****
 31 34 0 0 0
SMALL
GASTEIGER

@<TRIPOS>ATOM
      1 N           0.7990    1.4623   20.6662 N.pl3   1  UNL1       -0.3044
      2 C           0.8403    1.7694   22.1339 C.3     1  UNL1        0.1123
      3 C          -0.1729    2.6982   22.7346 C.3     1  UNL1        0.1150
      4 N          -1.2273    3.3199   21.8677 N.pl3   1  UNL1       -0.2739
      5 C          -1.2685    3.0129   20.4000 C.3     1  UNL1        0.0954
      6 C          -2.3230    3.6346   19.5330 C.3     1  UNL1        0.0233
      7 C          -0.2554    2.0841   19.7993 C.3     1  UNL1        0.1106
      8 C           3.8385   -1.3241   18.8641 C.ar    1  UNL1        0.1383
      9 C           2.8056   -1.8539   19.8140 C.ar    1  UNL1        0.0381
     10 C           1.7925   -0.9251   20.4147 C.ar    1  UNL1        0.0173
     11 C           1.8122    0.5335   20.0655 C.ar    1  UNL1        0.0441
     12 C           2.8451    1.0633   19.1156 C.ar    1  UNL1       -0.0055
     13 C           2.8648    2.5220   18.7663 C.3     1  UNL1        0.0324
     14 C           3.8582    0.1346   18.5149 C.ar    1  UNL1        0.0339
     15 O           4.8516   -2.2529   18.2634 O.3     1  UNL1       -0.4755
     16 C           4.6119   -4.7975   18.7296 C.3     1  UNL1        0.0512
     17 C           5.2771   -3.4825   19.0095 C.3     1  UNL1        0.2055
     18 C          -2.2404    4.2487   22.4684 C.ar    1  UNL1        0.2593
     19 N          -2.0561    5.7177   22.7096 N.ar    1  UNL1       -0.0399
     20 O          -3.3176    6.2485   23.3237 O.2     1  UNL1       -0.3341
     21 C          -4.2815    5.1075   23.4619 C.ar    1  UNL1        0.2534
     22 N          -3.6158    3.8717   22.9333 N.ar    1  UNL1       -0.1764
     23 C          -5.6677    5.1883   24.0292 C.3     1  UNL1        0.1281
     24 C          -6.1851    4.3737   22.8808 C.3     1  UNL1        0.0272
     25 C          -7.5713    4.4544   23.4480 C.3     1  UNL1        0.0043
     26 C          -7.0540    5.2691   24.5965 C.3     1  UNL1        0.0272
     27 N          -5.1504    6.0029   25.1775 N.am    1  UNL1       -0.2997
     28 C          -4.6375    5.3199   26.4106 C.2     1  UNL1        0.2232
     29 C          -4.1201    6.1345   27.5589 C.3     1  UNL1        0.0946
     30 O          -4.6419    3.8223   26.4953 O.2     1  UNL1       -0.2751
     31 H          -5.1475    6.9858   25.1220 H       1  UNL1        0.1498
@<TRIPOS>BOND
     1    16    17    1
     2    17    15    1
     3    15     8    1
     4     8     9   ar
     5     9    10   ar
     6    10    11   ar
     7    11     1    1
     8     1     2    1
     9     2     3    1
    10     3     4    1
    11     4    18    1
    12    18    19   ar
    13    19    20   ar
    14    20    21   ar
    15    21    23    1
    16    23    27    1
    17    27    28   am
    18    28    29    1
    19    28    30    2
    20    23    24    1
    21    24    25    1
    22    25    26    1
    23    21    22   ar
    24     4     5    1
    25     5     6    1
    26     5     7    1
    27    11    12   ar
    28    12    13    1
    29    12    14   ar
    30    14     8   ar
    31     7     1    1
    32    22    18   ar
    33    26    23    1
    34    27    31    1
@<TRIPOS>MOLECULE
*****
 31 34 0 0 0
SMALL
GASTEIGER

@<TRIPOS>ATOM
      1 N           3.3595   -0.8523   20.4392 N.pl3   1  UNL1       -0.3044
      2 C           4.4733   -0.4644   21.3659 C.3     1  UNL1        0.1123
      3 C           5.4929   -1.4833   21.7810 C.3     1  UNL1        0.1150
      4 N           5.3987   -2.8902   21.2693 N.pl3   1  UNL1       -0.2739
      5 C           4.2848   -3.2781   20.3425 C.3     1  UNL1        0.0954
      6 C           4.1906   -4.6850   19.8308 C.3     1  UNL1        0.0233
      7 C           3.2653   -2.2592   19.9275 C.3     1  UNL1        0.1106
      8 C           0.3008    2.2044   19.1941 C.ar    1  UNL1        0.1383
      9 C           0.1304    1.4544   20.4819 C.ar    1  UNL1        0.0381
     10 C           1.1500    0.4355   20.8969 C.ar    1  UNL1        0.0173
     11 C           2.3399    0.1666   20.0242 C.ar    1  UNL1        0.0441
     12 C           2.5103    0.9166   18.7364 C.ar    1  UNL1       -0.0055
     13 C           3.7003    0.6478   17.8636 C.3     1  UNL1        0.0324
     14 C           1.4907    1.9356   18.3214 C.ar    1  UNL1        0.0339
     15 O          -0.7188    3.2234   18.7791 O.3     1  UNL1       -0.4755
     16 C          -0.6736    4.5711   16.5584 C.3     1  UNL1        0.0512
     17 C          -0.2953    4.4354   18.0035 C.3     1  UNL1        0.2055
     18 C           6.4182   -3.9091   21.6843 C.ar    1  UNL1        0.2593
     19 N           7.4770   -4.5057   20.8051 N.ar    1  UNL1       -0.0399
     20 O           8.2712   -5.4757   21.6288 O.2     1  UNL1       -0.3341
     21 C           7.7033   -5.4785   23.0171 C.ar    1  UNL1        0.2534
     22 N           6.5581   -4.5103   23.0514 N.ar    1  UNL1       -0.1764
     23 C           8.1943   -6.3045   24.1689 C.3     1  UNL1        0.1281
     24 C           9.0448   -7.1079   23.2302 C.3     1  UNL1        0.0272
     25 C           9.5358   -7.9338   24.3819 C.3     1  UNL1        0.0043
     26 C           8.6852   -7.1305   25.3207 C.3     1  UNL1        0.0272
     27 N           7.3437   -5.5011   25.1076 N.am    1  UNL1       -0.2997
     28 C           7.9590   -4.4036   25.9242 C.2     1  UNL1        0.2232
     29 C           7.1084   -3.6002   26.8629 C.3     1  UNL1        0.0946
     30 O           9.4248   -4.1094   25.8021 O.2     1  UNL1       -0.2751
     31 H           6.3816   -5.6942   25.1877 H       1  UNL1        0.1498
@<TRIPOS>BOND
     1    16    17    1
     2    17    15    1
     3    15     8    1
     4     8     9   ar
     5     9    10   ar
     6    10    11   ar
     7    11     1    1
     8     1     2    1
     9     2     3    1
    10     3     4    1
    11     4    18    1
    12    18    19   ar
    13    19    20   ar
    14    20    21   ar
    15    21    23    1
    16    23    27    1
    17    27    28   am
    18    28    29    1
    19    28    30    2
    20    23    24    1
    21    24    25    1
    22    25    26    1
    23    21    22   ar
    24     4     5    1
    25     5     6    1
    26     5     7    1
    27    11    12   ar
    28    12    13    1
    29    12    14   ar
    30    14     8   ar
    31     7     1    1
    32    22    18   ar
    33    26    23    1
    34    27    31    1
@<TRIPOS>MOLECULE
*****
 31 34 0 0 0
SMALL
GASTEIGER

@<TRIPOS>ATOM
      1 N           6.0872   -1.9276   31.6795 N.pl3   1  UNL1       -0.3044
      2 C           5.1360   -2.4274   32.7260 C.3     1  UNL1        0.1123
      3 C           4.3538   -1.4527   33.5555 C.3     1  UNL1        0.1150
      4 N           4.5228    0.0218   33.3385 N.pl3   1  UNL1       -0.2739
      5 C           5.4740    0.5217   32.2920 C.3     1  UNL1        0.0954
      6 C           5.6431    1.9963   32.0749 C.3     1  UNL1        0.0233
      7 C           6.2562   -0.4530   31.4625 C.3     1  UNL1        0.1106
      8 C           8.4339   -4.8517   29.1910 C.ar    1  UNL1        0.1383
      9 C           7.0705   -4.4126   28.7456 C.ar    1  UNL1        0.0381
     10 C           6.2883   -3.4379   29.5751 C.ar    1  UNL1        0.0173
     11 C           6.8694   -2.9023   30.8500 C.ar    1  UNL1        0.0441
     12 C           8.2328   -3.3413   31.2953 C.ar    1  UNL1       -0.0055
     13 C           8.8140   -2.8057   32.5703 C.3     1  UNL1        0.0324
     14 C           9.0150   -4.3160   30.4658 C.ar    1  UNL1        0.0339
     15 O           9.2161   -5.8264   28.3615 O.3     1  UNL1       -0.4755
     16 C           8.8571   -8.0911   27.1399 C.3     1  UNL1        0.0512
     17 C           8.5244   -6.6380   27.3066 C.3     1  UNL1        0.2055
     18 C           3.7406    0.9965   34.1680 C.ar    1  UNL1        0.2593
     19 N           2.4508    1.6534   33.7743 N.ar    1  UNL1       -0.0399
     20 O           2.0238    2.5484   34.8998 O.2     1  UNL1       -0.3341
     21 C           3.0498    2.4446   35.9892 C.ar    1  UNL1        0.2534
     22 N           4.1107    1.4855   35.5369 N.ar    1  UNL1       -0.1764
     23 C           3.0200    3.1722   37.3006 C.3     1  UNL1        0.1281
     24 C           4.1102    4.0833   36.8198 C.3     1  UNL1        0.0272
     25 C           4.0805    4.8109   38.1311 C.3     1  UNL1        0.0043
     26 C           2.9902    3.8997   38.6120 C.3     1  UNL1        0.0272
     27 N           1.9298    2.2610   37.7813 N.am    1  UNL1       -0.2997
     28 C           2.2435    1.1659   38.7571 C.2     1  UNL1        0.2232
     29 C           1.1533    0.2547   39.2379 C.3     1  UNL1        0.0946
     30 O           3.6475    0.9819   39.2522 O.2     1  UNL1       -0.2751
     31 H           1.0083    2.3817   37.4564 H       1  UNL1        0.1498
@<TRIPOS>BOND
     1    16    17    1
     2    17    15    1
     3    15     8    1
     4     8     9   ar
     5     9    10   ar
     6    10    11   ar
     7    11     1    1
     8     1     2    1
     9     2     3    1
    10     3     4    1
    11     4    18    1
    12    18    19   ar
    13    19    20   ar
    14    20    21   ar
    15    21    23    1
    16    23    27    1
    17    27    28   am
    18    28    29    1
    19    28    30    2
    20    23    24    1
    21    24    25    1
    22    25    26    1
    23    21    22   ar
    24     4     5    1
    25     5     6    1
    26     5     7    1
    27    11    12   ar
    28    12    13    1
    29    12    14   ar
    30    14     8   ar
    31     7     1    1
    32    22    18   ar
    33    26    23    1
    34    27    31    1
@<TRIPOS>MOLECULE
*****
 31 34 0 0 0
SMALL
GASTEIGER

@<TRIPOS>ATOM
      1 N           7.3238   -4.6567   24.1676 N.pl3   1  UNL1       -0.3044
      2 C           8.2253   -4.8287   22.9811 C.3     1  UNL1        0.1123
      3 C           7.8292   -4.2623   21.6498 C.3     1  UNL1        0.1150
      4 N           6.5317   -3.5238   21.5050 N.pl3   1  UNL1       -0.2739
      5 C           5.6303   -3.3517   22.6915 C.3     1  UNL1        0.0954
      6 C           4.3327   -2.6132   22.5467 C.3     1  UNL1        0.0233
      7 C           6.0263   -3.9182   24.0228 C.3     1  UNL1        0.1106
      8 C           8.5120   -6.3561   28.1613 C.ar    1  UNL1        0.1383
      9 C           7.7606   -7.2045   27.1788 C.ar    1  UNL1        0.0381
     10 C           7.3645   -6.6381   25.8476 C.ar    1  UNL1        0.0173
     11 C           7.7199   -5.2231   25.4988 C.ar    1  UNL1        0.0441
     12 C           8.4714   -4.3747   26.4814 C.ar    1  UNL1       -0.0055
     13 C           8.8268   -2.9597   26.1326 C.3     1  UNL1        0.0324
     14 C           8.8674   -4.9412   27.8126 C.ar    1  UNL1        0.0339
     15 O           8.9081   -6.9225   29.4926 O.3     1  UNL1       -0.4755
     16 C           7.1206   -5.8040   31.0104 C.3     1  UNL1        0.0512
     17 C           8.5454   -6.1970   30.7543 C.3     1  UNL1        0.2055
     18 C           6.1357   -2.9573   20.1738 C.ar    1  UNL1        0.2593
     19 N           5.4532   -3.7034   19.0659 N.ar    1  UNL1       -0.0399
     20 O           5.2483   -2.7525   17.9240 O.2     1  UNL1       -0.3341
     21 C           5.8041   -1.4186   18.3263 C.ar    1  UNL1        0.2534
     22 N           6.3525   -1.5452   19.7167 N.ar    1  UNL1       -0.1764
     23 C           5.8103   -0.1763   17.4857 C.3     1  UNL1        0.1281
     24 C           7.3036   -0.1021   17.6065 C.3     1  UNL1        0.0272
     25 C           7.3100    1.1402   16.7660 C.3     1  UNL1        0.0043
     26 C           5.8166    1.0661   16.6452 C.3     1  UNL1        0.0272
     27 N           4.3171   -0.2504   17.3649 N.am    1  UNL1       -0.2997
     28 C           3.4479    0.4498   18.3670 C.2     1  UNL1        0.2232
     29 C           1.9546    0.3756   18.2463 C.3     1  UNL1        0.0946
     30 O           4.0720    1.2242   19.4899 O.2     1  UNL1       -0.2751
     31 H           3.9074   -0.7587   16.6280 H       1  UNL1        0.1498
@<TRIPOS>BOND
     1    16    17    1
     2    17    15    1
     3    15     8    1
     4     8     9   ar
     5     9    10   ar
     6    10    11   ar
     7    11     1    1
     8     1     2    1
     9     2     3    1
    10     3     4    1
    11     4    18    1
    12    18    19   ar
    13    19    20   ar
    14    20    21   ar
    15    21    23    1
    16    23    27    1
    17    27    28   am
    18    28    29    1
    19    28    30    2
    20    23    24    1
    21    24    25    1
    22    25    26    1
    23    21    22   ar
    24     4     5    1
    25     5     6    1
    26     5     7    1
    27    11    12   ar
    28    12    13    1
    29    12    14   ar
    30    14     8   ar
    31     7     1    1
    32    22    18   ar
    33    26    23    1
    34    27    31    1
@<TRIPOS>MOLECULE
*****
 31 34 0 0 0
SMALL
GASTEIGER

@<TRIPOS>ATOM
      1 N           2.0933    0.3692   20.2894 N.pl3   1  UNL1       -0.3044
      2 C           1.3890    0.5716   21.5982 C.3     1  UNL1        0.1123
      3 C           0.2460    1.5383   21.6932 C.3     1  UNL1        0.1150
      4 N          -0.1928    2.3025   20.4794 N.pl3   1  UNL1       -0.2739
      5 C           0.5114    2.1001   19.1706 C.3     1  UNL1        0.0954
      6 C           0.0727    2.8643   17.9567 C.3     1  UNL1        0.0233
      7 C           1.6545    1.1334   19.0756 C.3     1  UNL1        0.1106
      8 C           5.5224   -2.5308   20.0044 C.ar    1  UNL1        0.1383
      9 C           4.1205   -2.9996   19.7497 C.ar    1  UNL1        0.0381
     10 C           2.9775   -2.0329   19.8447 C.ar    1  UNL1        0.0173
     11 C           3.2363   -0.5975   20.1944 C.ar    1  UNL1        0.0441
     12 C           4.6382   -0.1287   20.4491 C.ar    1  UNL1       -0.0055
     13 C           4.8971    1.3069   20.7988 C.3     1  UNL1        0.0324
     14 C           5.7812   -1.0953   20.3541 C.ar    1  UNL1        0.0339
     15 O           6.6654   -3.4975   19.9094 O.3     1  UNL1       -0.4755
     16 C           6.7690   -3.9603   22.4638 C.3     1  UNL1        0.0512
     17 C           7.4561   -3.8468   21.1352 C.3     1  UNL1        0.2055
     18 C          -1.3358    3.2692   20.5744 C.ar    1  UNL1        0.2593
     19 N          -1.2233    4.7488   20.7941 N.ar    1  UNL1       -0.0399
     20 O          -2.6100    5.3200   20.8219 O.2     1  UNL1       -0.3341
     21 C          -3.5796    4.1935   20.6193 C.ar    1  UNL1        0.2534
     22 N          -2.7920    2.9261   20.4664 N.ar    1  UNL1       -0.1764
     23 C          -5.0742    4.3134   20.5771 C.3     1  UNL1        0.1281
     24 C          -5.0955    3.5853   19.2659 C.3     1  UNL1        0.0272
     25 C          -6.5901    3.7051   19.2236 C.3     1  UNL1        0.0043
     26 C          -6.5687    4.4333   20.5349 C.3     1  UNL1        0.0272
     27 N          -5.0528    5.0416   21.8883 N.am    1  UNL1       -0.2997
     28 C          -5.0449    4.2699   23.1746 C.2     1  UNL1        0.2232
     29 C          -5.0235    4.9981   24.4858 C.3     1  UNL1        0.0946
     30 O          -5.0584    2.7702   23.1496 O.2     1  UNL1       -0.2751
     31 H          -5.0439    6.0259   21.9047 H       1  UNL1        0.1498
@<TRIPOS>BOND
     1    16    17    1
     2    17    15    1
     3    15     8    1
     4     8     9   ar
     5     9    10   ar
     6    10    11   ar
     7    11     1    1
     8     1     2    1
     9     2     3    1
    10     3     4    1
    11     4    18    1
    12    18    19   ar
    13    19    20   ar
    14    20    21   ar
    15    21    23    1
    16    23    27    1
    17    27    28   am
    18    28    29    1
    19    28    30    2
    20    23    24    1
    21    24    25    1
    22    25    26    1
    23    21    22   ar
    24     4     5    1
    25     5     6    1
    26     5     7    1
    27    11    12   ar
    28    12    13    1
    29    12    14   ar
    30    14     8   ar
    31     7     1    1
    32    22    18   ar
    33    26    23    1
    34    27    31    1
@<TRIPOS>MOLECULE
*****
 31 34 0 0 0
SMALL
GASTEIGER

@<TRIPOS>ATOM
      1 N           5.0189   -0.9344   32.6873 N.pl3   1  UNL1       -0.3044
      2 C           5.0347   -2.3690   33.1251 C.3     1  UNL1        0.1123
      3 C           5.7735   -3.3924   32.3147 C.3     1  UNL1        0.1150
      4 N           6.4965   -2.9812   31.0664 N.pl3   1  UNL1       -0.2739
      5 C           6.4807   -1.5466   30.6286 C.3     1  UNL1        0.0954
      6 C           7.2037   -1.1354   29.3803 C.3     1  UNL1        0.0233
      7 C           5.7419   -0.5232   31.4391 C.3     1  UNL1        0.1106
      8 C           2.8025    2.1358   35.1187 C.ar    1  UNL1        0.1383
      9 C           3.9696    1.4065   35.7154 C.ar    1  UNL1        0.0381
     10 C           4.7084    0.3832   34.9049 C.ar    1  UNL1        0.0173
     11 C           4.2801    0.0890   33.4978 C.ar    1  UNL1        0.0441
     12 C           3.1130    0.8183   32.9012 C.ar    1  UNL1       -0.0055
     13 C           2.6847    0.5241   31.4940 C.3     1  UNL1        0.0324
     14 C           2.3742    1.8417   33.7116 C.ar    1  UNL1        0.0339
     15 O           2.0638    3.1592   35.9292 O.3     1  UNL1       -0.4755
     16 C           1.7983    2.7890   38.4870 C.3     1  UNL1        0.0512
     17 C           2.4928    3.4542   37.3359 C.3     1  UNL1        0.2055
     18 C           7.2353   -4.0046   30.2559 C.ar    1  UNL1        0.2593
     19 N           8.6895   -4.3489   30.3845 N.ar    1  UNL1       -0.0399
     20 O           9.0026   -5.4205   29.3827 O.2     1  UNL1       -0.3341
     21 C           7.7418   -5.7384   28.6348 C.ar    1  UNL1        0.2534
     22 N           6.6495   -4.8634   29.1746 N.ar    1  UNL1       -0.1764
     23 C           7.5983   -6.7533   27.5396 C.3     1  UNL1        0.1281
     24 C           8.4452   -7.7147   28.3196 C.3     1  UNL1        0.0272
     25 C           8.3018   -8.7296   27.2245 C.3     1  UNL1        0.0043
     26 C           7.4549   -7.7681   26.4444 C.3     1  UNL1        0.0272
     27 N           6.7515   -5.7918   26.7596 N.am    1  UNL1       -0.2997
     28 C           7.3820   -4.9017   25.7301 C.2     1  UNL1        0.2232
     29 C           6.5351   -3.9402   24.9501 C.3     1  UNL1        0.0946
     30 O           8.8593   -4.9730   25.4805 O.2     1  UNL1       -0.2751
     31 H           5.7818   -5.7450   26.9235 H       1  UNL1        0.1498
@<TRIPOS>BOND
     1    16    17    1
     2    17    15    1
     3    15     8    1
     4     8     9   ar
     5     9    10   ar
     6    10    11   ar
     7    11     1    1
     8     1     2    1
     9     2     3    1
    10     3     4    1
    11     4    18    1
    12    18    19   ar
    13    19    20   ar
    14    20    21   ar
    15    21    23    1
    16    23    27    1
    17    27    28   am
    18    28    29    1
    19    28    30    2
    20    23    24    1
    21    24    25    1
    22    25    26    1
    23    21    22   ar
    24     4     5    1
    25     5     6    1
    26     5     7    1
    27    11    12   ar
    28    12    13    1
    29    12    14   ar
    30    14     8   ar
    31     7     1    1
    32    22    18   ar
    33    26    23    1
    34    27    31    1
@<TRIPOS>MOLECULE
*****
 31 34 0 0 0
SMALL
GASTEIGER

@<TRIPOS>ATOM
      1 N           5.8857   -1.4744   31.9316 N.pl3   1  UNL1       -0.3044
      2 C           4.8977   -2.2045   32.7923 C.3     1  UNL1        0.1123
      3 C           4.4885   -1.6307   34.1165 C.3     1  UNL1        0.1150
      4 N           5.0674   -0.3269   34.5799 N.pl3   1  UNL1       -0.2739
      5 C           6.0554    0.4032   33.7193 C.3     1  UNL1        0.0954
      6 C           6.6343    1.7071   34.1827 C.3     1  UNL1        0.0233
      7 C           6.4645   -0.1706   32.3951 C.3     1  UNL1        0.1106
      8 C           7.1131   -3.1957   27.9592 C.ar    1  UNL1        0.1383
      9 C           6.0079   -2.1840   28.0289 C.ar    1  UNL1        0.0381
     10 C           5.5987   -1.6102   29.3530 C.ar    1  UNL1        0.0173
     11 C           6.2948   -2.0482   30.6075 C.ar    1  UNL1        0.0441
     12 C           7.4000   -3.0599   30.5377 C.ar    1  UNL1       -0.0055
     13 C           8.0962   -3.4978   31.7922 C.3     1  UNL1        0.0324
     14 C           7.8092   -3.6336   29.2136 C.ar    1  UNL1        0.0339
     15 O           7.5222   -3.7695   26.6350 O.3     1  UNL1       -0.4755
     16 C           6.8208   -6.2703   26.6952 C.3     1  UNL1        0.0512
     17 C           6.7583   -4.9188   26.0474 C.3     1  UNL1        0.2055
     18 C           4.6582    0.2469   35.9041 C.ar    1  UNL1        0.2593
     19 N           5.5152    0.3282   37.1325 N.ar    1  UNL1       -0.0399
     20 O           4.7069    0.9717   38.2199 O.2     1  UNL1       -0.3341
     21 C           3.3503    1.2880   37.6637 C.ar    1  UNL1        0.2534
     22 N           3.3202    0.8401   36.2324 N.ar    1  UNL1       -0.1764
     23 C           2.2218    1.9382   38.4079 C.3     1  UNL1        0.1281
     24 C           1.7821    0.5962   38.9135 C.3     1  UNL1        0.0272
     25 C           0.6537    1.2462   39.6577 C.3     1  UNL1        0.0043
     26 C           1.0934    2.5883   39.1522 C.3     1  UNL1        0.0272
     27 N           2.6616    3.2802   37.9024 N.am    1  UNL1       -0.2997
     28 C           3.5216    4.1599   38.7606 C.2     1  UNL1        0.2232
     29 C           3.9614    5.5019   38.2551 C.3     1  UNL1        0.0946
     30 O           3.9418    3.6976   40.1243 O.2     1  UNL1       -0.2751
     31 H           2.3859    3.5836   37.0073 H       1  UNL1        0.1498
@<TRIPOS>BOND
     1    16    17    1
     2    17    15    1
     3    15     8    1
     4     8     9   ar
     5     9    10   ar
     6    10    11   ar
     7    11     1    1
     8     1     2    1
     9     2     3    1
    10     3     4    1
    11     4    18    1
    12    18    19   ar
    13    19    20   ar
    14    20    21   ar
    15    21    23    1
    16    23    27    1
    17    27    28   am
    18    28    29    1
    19    28    30    2
    20    23    24    1
    21    24    25    1
    22    25    26    1
    23    21    22   ar
    24     4     5    1
    25     5     6    1
    26     5     7    1
    27    11    12   ar
    28    12    13    1
    29    12    14   ar
    30    14     8   ar
    31     7     1    1
    32    22    18   ar
    33    26    23    1
    34    27    31    1
@<TRIPOS>MOLECULE
*****
 31 34 0 0 0
SMALL
GASTEIGER

@<TRIPOS>ATOM
      1 N          -0.9967    2.6764   27.3320 N.pl3   1  UNL1       -0.3044
      2 C          -0.9946    1.2264   27.7158 C.3     1  UNL1        0.1123
      3 C          -0.0522    0.7317   28.7728 C.3     1  UNL1        0.1150
      4 N           0.8881    1.6870   29.4459 N.pl3   1  UNL1       -0.2739
      5 C           0.8860    3.1370   29.0621 C.3     1  UNL1        0.0954
      6 C           1.8263    4.0924   29.7353 C.3     1  UNL1        0.0233
      7 C          -0.0564    3.6318   28.0052 C.3     1  UNL1        0.1106
      8 C          -3.8239    4.1606   24.1612 C.ar    1  UNL1        0.1383
      9 C          -4.2306    4.1954   25.6045 C.ar    1  UNL1        0.0381
     10 C          -3.2882    3.7007   26.6615 C.ar    1  UNL1        0.0173
     11 C          -1.9391    3.1712   26.2751 C.ar    1  UNL1        0.0441
     12 C          -1.5323    3.1364   24.8317 C.ar    1  UNL1       -0.0055
     13 C          -0.1831    2.6068   24.4453 C.3     1  UNL1        0.0324
     14 C          -2.4747    3.6311   23.7748 C.ar    1  UNL1        0.0339
     15 O          -4.7663    4.6553   23.1042 O.3     1  UNL1       -0.4755
     16 C          -7.3563    4.4808   23.2101 C.3     1  UNL1        0.0512
     17 C          -6.0304    3.9018   22.8142 C.3     1  UNL1        0.2055
     18 C           1.8305    1.1923   30.5029 C.ar    1  UNL1        0.2593
     19 N           1.6906    1.4094   31.9805 N.ar    1  UNL1       -0.0399
     20 O           2.8519    0.7449   32.6586 O.2     1  UNL1       -0.3341
     21 C           3.7095    0.1171   31.6001 C.ar    1  UNL1        0.2534
     22 N           3.0782    0.3936   30.2678 N.ar    1  UNL1       -0.1764
     23 C           4.9760   -0.6522   31.8330 C.3     1  UNL1        0.1281
     24 C           4.9205   -1.1694   30.4261 C.3     1  UNL1        0.0272
     25 C           6.1869   -1.9387   30.6589 C.3     1  UNL1        0.0043
     26 C           6.2424   -1.4215   32.0659 C.3     1  UNL1        0.0272
     27 N           5.0314   -0.1350   33.2399 N.am    1  UNL1       -0.2997
     28 C           4.5412   -0.9878   34.3724 C.2     1  UNL1        0.2232
     29 C           4.5967   -0.4705   35.7793 C.3     1  UNL1        0.0946
     30 O           3.9956   -2.3578   34.0979 O.2     1  UNL1       -0.2751
     31 H           5.3895    0.7642   33.4201 H       1  UNL1        0.1498
@<TRIPOS>BOND
     1    16    17    1
     2    17    15    1
     3    15     8    1
     4     8     9   ar
     5     9    10   ar
     6    10    11   ar
     7    11     1    1
     8     1     2    1
     9     2     3    1
    10     3     4    1
    11     4    18    1
    12    18    19   ar
    13    19    20   ar
    14    20    21   ar
    15    21    23    1
    16    23    27    1
    17    27    28   am
    18    28    29    1
    19    28    30    2
    20    23    24    1
    21    24    25    1
    22    25    26    1
    23    21    22   ar
    24     4     5    1
    25     5     6    1
    26     5     7    1
    27    11    12   ar
    28    12    13    1
    29    12    14   ar
    30    14     8   ar
    31     7     1    1
    32    22    18   ar
    33    26    23    1
    34    27    31    1
