@<TRIPOS>MOLECULE
*****
 34 35 0 0 0
SMALL
GASTEIGER

@<TRIPOS>ATOM
      1 N         -10.4825  -19.3648   20.2744 N.3     1  UNL1       -0.2712
      2 C          -9.7657  -19.6175   21.5675 C.3     1  UNL1        0.0723
      3 C         -10.3943  -19.2072   22.8662 C.3     1  UNL1        0.0214
      4 C         -11.7397  -18.5441   22.8717 C.3     1  UNL1        0.0478
      5 C         -12.4565  -18.2913   21.5785 C.3     1  UNL1        0.0214
      6 C         -11.8279  -18.7017   20.2799 C.3     1  UNL1        0.0723
      7 C         -12.9867  -17.8898   23.3886 C.3     1  UNL1        0.1387
      8 O         -13.5396  -18.2816   24.7268 O.3     1  UNL1       -0.3819
      9 H         -13.8410  -19.2030   24.6949 H       1  UNL1        0.2104
     10 C          -9.8539  -19.7751   18.9758 C.3     1  UNL1        0.0937
     11 C          -8.3899  -20.0968   18.9198 C.3     1  UNL1        0.1082
     12 N          -5.0930  -18.6017   20.5462 N.am    1  UNL1       -0.2921
     13 C          -6.0982  -19.5903   20.0342 C.2     1  UNL1        0.3007
     14 O          -5.8171  -21.0609   20.1245 O.2     1  UNL1       -0.2528
     15 N          -7.3846  -19.1082   19.4318 N.am    1  UNL1       -0.2875
     16 H          -5.2775  -17.6364   20.4870 H       1  UNL1        0.1508
     17 H          -7.5692  -18.1430   19.3726 H       1  UNL1        0.1510
     18 C          -4.4369  -19.0652   22.5095 C.3     1  UNL1        0.0197
     19 C          -3.8066  -19.0837   21.1486 C.3     1  UNL1        0.0583
     20 C          -3.1763  -19.1022   19.7876 C.3     1  UNL1        0.0197
     21 C          -2.5201  -19.5657   21.7509 C.3     1  UNL1        0.0197
     22 C         -11.4559  -18.5696   24.3444 C.3     1  UNL1        0.0921
     23 N         -10.1520  -18.0429   24.8662 N.am    1  UNL1       -0.3008
     24 C          -9.6096  -16.7417   24.3535 C.2     1  UNL1        0.2459
     25 O         -10.3713  -15.9673   23.3191 O.2     1  UNL1       -0.2701
     26 H          -9.6521  -18.5512   25.5451 H       1  UNL1        0.1497
     27 C          -8.3057  -16.2150   24.8753 C.ar    1  UNL1        0.0550
     28 C          -8.2037  -15.7363   26.2932 C.ar    1  UNL1        0.0160
     29 C          -6.8998  -15.2096   26.8150 C.ar    1  UNL1        0.0587
     30 CL         -6.7978  -14.7309   28.2330 Cl      1  UNL1       -0.0822
     31 C          -5.6978  -15.1615   25.9189 C.ar    1  UNL1        0.0228
     32 C          -5.7998  -15.6402   24.5009 C.ar    1  UNL1        0.0587
     33 CL         -4.5979  -15.5921   23.6049 Cl      1  UNL1       -0.0822
     34 C          -7.1038  -16.1669   23.9792 C.ar    1  UNL1        0.0160
@<TRIPOS>BOND
     1    18    19    1
     2    19    20    1
     3    19    21    1
     4    19    12    1
     5    12    13   am
     6    13    14    2
     7    13    15   am
     8    15    11    1
     9    11    10    1
    10    10     1    1
    11     1     2    1
    12     2     3    1
    13     3     4    1
    14     4     7    1
    15     7     8    1
    16     4    22    1
    17    22    23    1
    18    23    24   am
    19    24    25    2
    20    24    27    1
    21    27    28   ar
    22    28    29   ar
    23    29    30    1
    24    29    31   ar
    25    31    32   ar
    26    32    33    1
    27    32    34   ar
    28     4     5    1
    29     5     6    1
    30     6     1    1
    31    34    27   ar
    32    12    16    1
    33    15    17    1
    34     8     9    1
    35    23    26    1
@<TRIPOS>MOLECULE
*****
 34 35 0 0 0
SMALL
GASTEIGER

@<TRIPOS>ATOM
      1 N          -3.5172  -18.7784   21.2870 N.3     1  UNL1       -0.2712
      2 C          -4.3654  -19.2545   22.4289 C.3     1  UNL1        0.0723
      3 C          -5.7393  -19.7967   22.1676 C.3     1  UNL1        0.0214
      4 C          -6.2651  -19.8628   20.7643 C.3     1  UNL1        0.0478
      5 C          -5.4170  -19.3867   19.6224 C.3     1  UNL1        0.0214
      6 C          -4.0430  -18.8446   19.8838 C.3     1  UNL1        0.0723
      7 C          -7.1980  -20.1260   19.6195 C.3     1  UNL1        0.1387
      8 O          -7.9343  -18.9889   18.9754 O.3     1  UNL1       -0.3819
      9 H          -8.5604  -18.6079   19.6108 H       1  UNL1        0.2104
     10 C          -2.1433  -18.2362   21.5484 C.3     1  UNL1        0.0937
     11 C          -1.9775  -16.8973   22.2040 C.3     1  UNL1        0.1082
     12 N          -5.3236  -15.2182   23.5211 N.am    1  UNL1       -0.2921
     13 C          -4.1530  -16.1498   23.4117 C.2     1  UNL1        0.3007
     14 O          -3.9874  -17.2654   24.4007 O.2     1  UNL1       -0.2528
     15 N          -3.1481  -15.9657   22.3134 N.am    1  UNL1       -0.2875
     16 H          -5.4323  -14.4860   22.8720 H       1  UNL1        0.1508
     17 H          -3.2568  -15.2335   21.6643 H       1  UNL1        0.1510
     18 C          -5.3588  -14.8193   25.6043 C.3     1  UNL1        0.0197
     19 C          -6.3284  -15.4022   24.6194 C.3     1  UNL1        0.0583
     20 C          -7.2981  -15.9850   23.6346 C.3     1  UNL1        0.0197
     21 C          -7.3334  -15.5862   25.7177 C.3     1  UNL1        0.0197
     22 C          -7.4373  -20.4303   21.5087 C.3     1  UNL1        0.0921
     23 N          -8.7150  -19.6502   21.6028 N.am    1  UNL1       -0.3008
     24 C          -9.5399  -19.7100   22.8541 C.2     1  UNL1        0.2459
     25 O          -9.0870  -20.5501   24.0114 O.2     1  UNL1       -0.2701
     26 H          -9.0122  -19.0989   20.8432 H       1  UNL1        0.1497
     27 C         -10.8176  -18.9299   22.9482 C.ar    1  UNL1        0.0550
     28 C         -11.1861  -17.9607   21.8644 C.ar    1  UNL1        0.0160
     29 C         -12.4638  -17.1806   21.9585 C.ar    1  UNL1        0.0587
     30 CL        -12.8323  -16.2113   20.8746 Cl      1  UNL1       -0.0822
     31 C         -13.3730  -17.3697   23.1364 C.ar    1  UNL1        0.0228
     32 C         -13.0045  -18.3390   24.2203 C.ar    1  UNL1        0.0587
     33 CL        -13.9137  -18.5281   25.3982 Cl      1  UNL1       -0.0822
     34 C         -11.7268  -19.1191   24.1262 C.ar    1  UNL1        0.0160
@<TRIPOS>BOND
     1    18    19    1
     2    19    20    1
     3    19    21    1
     4    19    12    1
     5    12    13   am
     6    13    14    2
     7    13    15   am
     8    15    11    1
     9    11    10    1
    10    10     1    1
    11     1     2    1
    12     2     3    1
    13     3     4    1
    14     4     7    1
    15     7     8    1
    16     4    22    1
    17    22    23    1
    18    23    24   am
    19    24    25    2
    20    24    27    1
    21    27    28   ar
    22    28    29   ar
    23    29    30    1
    24    29    31   ar
    25    31    32   ar
    26    32    33    1
    27    32    34   ar
    28     4     5    1
    29     5     6    1
    30     6     1    1
    31    34    27   ar
    32    12    16    1
    33    15    17    1
    34     8     9    1
    35    23    26    1
@<TRIPOS>MOLECULE
*****
 34 35 0 0 0
SMALL
GASTEIGER

@<TRIPOS>ATOM
      1 N           8.6343   -7.8996   26.9455 N.3     1  UNL1       -0.2712
      2 C           7.6999   -6.7967   27.3461 C.3     1  UNL1        0.0723
      3 C           7.3237   -5.7354   26.3550 C.3     1  UNL1        0.0214
      4 C           7.8819   -5.7770   24.9634 C.3     1  UNL1        0.0478
      5 C           8.8163   -6.8799   24.5628 C.3     1  UNL1        0.0214
      6 C           9.1925   -7.9412   25.5538 C.3     1  UNL1        0.0723
      7 C           8.1476   -5.3887   23.5391 C.3     1  UNL1        0.1387
      8 O           8.2623   -6.4469   22.4822 O.3     1  UNL1       -0.3819
      9 H           9.0482   -6.9896   22.6518 H       1  UNL1        0.2104
     10 C           9.0105   -8.9609   27.9365 C.3     1  UNL1        0.0937
     11 C           8.2792  -10.2704   27.9469 C.3     1  UNL1        0.1082
     12 N           4.5617  -11.6138   27.5927 N.am    1  UNL1       -0.2921
     13 C           6.0326  -11.5738   27.8840 C.2     1  UNL1        0.3007
     14 O           6.7277  -12.7971   28.4038 O.2     1  UNL1       -0.2528
     15 N           6.8083  -10.3104   27.6555 N.am    1  UNL1       -0.2875
     16 H           4.1054  -10.8108   27.2515 H       1  UNL1        0.1508
     17 H           6.3521   -9.5075   27.3144 H       1  UNL1        0.1510
     18 C           3.4672  -12.4290   29.2167 C.3     1  UNL1        0.0197
     19 C           3.7859  -12.8770   27.8211 C.3     1  UNL1        0.0583
     20 C           4.1046  -13.3251   26.4255 C.3     1  UNL1        0.0197
     21 C           3.0101  -14.1404   28.0495 C.3     1  UNL1        0.0197
     22 C           7.0398   -4.5392   24.8694 C.3     1  UNL1        0.0921
     23 N           6.2866   -4.2386   23.6075 N.am    1  UNL1       -0.3008
     24 C           5.2789   -3.1279   23.5820 C.2     1  UNL1        0.2459
     25 O           5.0243   -2.3178   24.8185 O.2     1  UNL1       -0.2701
     26 H           6.4538   -4.7703   22.7960 H       1  UNL1        0.1497
     27 C           4.5258   -2.8272   22.3202 C.ar    1  UNL1        0.0550
     28 C           4.5973   -3.7754   21.1600 C.ar    1  UNL1        0.0160
     29 C           3.8442   -3.4747   19.8982 C.ar    1  UNL1        0.0587
     30 CL          3.9157   -4.4229   18.7380 Cl      1  UNL1       -0.0822
     31 C           3.0195   -2.2260   19.7963 C.ar    1  UNL1        0.0228
     32 C           2.9479   -1.2778   20.9565 C.ar    1  UNL1        0.0587
     33 CL          2.1232   -0.0290   20.8546 Cl      1  UNL1       -0.0822
     34 C           3.7010   -1.5784   22.2184 C.ar    1  UNL1        0.0160
@<TRIPOS>BOND
     1    18    19    1
     2    19    20    1
     3    19    21    1
     4    19    12    1
     5    12    13   am
     6    13    14    2
     7    13    15   am
     8    15    11    1
     9    11    10    1
    10    10     1    1
    11     1     2    1
    12     2     3    1
    13     3     4    1
    14     4     7    1
    15     7     8    1
    16     4    22    1
    17    22    23    1
    18    23    24   am
    19    24    25    2
    20    24    27    1
    21    27    28   ar
    22    28    29   ar
    23    29    30    1
    24    29    31   ar
    25    31    32   ar
    26    32    33    1
    27    32    34   ar
    28     4     5    1
    29     5     6    1
    30     6     1    1
    31    34    27   ar
    32    12    16    1
    33    15    17    1
    34     8     9    1
    35    23    26    1
@<TRIPOS>MOLECULE
*****
 34 35 0 0 0
SMALL
GASTEIGER

@<TRIPOS>ATOM
      1 N           8.5456   -8.2032   27.1064 N.3     1  UNL1       -0.2712
      2 C           8.4687   -7.9649   25.6275 C.3     1  UNL1        0.0723
      3 C           7.9023   -6.6786   25.1035 C.3     1  UNL1        0.0214
      4 C           7.4128   -5.6306   26.0584 C.3     1  UNL1        0.0478
      5 C           7.4897   -5.8688   27.5373 C.3     1  UNL1        0.0214
      6 C           8.0561   -7.1551   28.0613 C.3     1  UNL1        0.0723
      7 C           6.8258   -4.3446   26.5603 C.3     1  UNL1        0.1387
      8 O           5.8304   -4.3621   27.6823 O.3     1  UNL1       -0.3819
      9 H           5.0200   -4.8068   27.3887 H       1  UNL1        0.2104
     10 C           9.1121   -9.4895   27.6304 C.3     1  UNL1        0.0937
     11 C           8.1955  -10.6208   27.9911 C.3     1  UNL1        0.1082
     12 N           4.3503  -11.5586   27.6993 N.am    1  UNL1       -0.2921
     13 C           5.8268  -11.6864   27.9311 C.2     1  UNL1        0.3007
     14 O           6.4110  -13.0077   28.3345 O.2     1  UNL1       -0.2528
     15 N           6.7191  -10.4929   27.7593 N.am    1  UNL1       -0.2875
     16 H           3.9669  -10.6913   27.4345 H       1  UNL1        0.1508
     17 H           6.3356   -9.6257   27.4945 H       1  UNL1        0.1510
     18 C           3.6667  -13.1152   26.4307 C.3     1  UNL1        0.0197
     19 C           3.4581  -12.7520   27.8710 C.3     1  UNL1        0.0583
     20 C           3.2494  -12.3888   29.3113 C.3     1  UNL1        0.0197
     21 C           2.5657  -13.9455   28.0428 C.3     1  UNL1        0.0197
     22 C           7.1320   -4.9457   24.7537 C.3     1  UNL1        0.0921
     23 N           6.1303   -3.8310   24.6922 N.am    1  UNL1       -0.3008
     24 C           5.4908   -3.4686   23.3846 C.2     1  UNL1        0.2459
     25 O           5.8532   -4.2209   22.1386 O.2     1  UNL1       -0.2701
     26 H           5.8925   -3.3372   25.5100 H       1  UNL1        0.1497
     27 C           4.4891   -2.3538   23.3231 C.ar    1  UNL1        0.0550
     28 C           3.8086   -2.0277   22.0267 C.ar    1  UNL1        0.0160
     29 C           2.8068   -0.9130   21.9652 C.ar    1  UNL1        0.0587
     30 CL          2.1263   -0.5869   20.6687 Cl      1  UNL1       -0.0822
     31 C           2.4855   -0.1243   23.1999 C.ar    1  UNL1        0.0228
     32 C           3.1660   -0.4504   24.4964 C.ar    1  UNL1        0.0587
     33 CL          2.8447    0.3383   25.7311 Cl      1  UNL1       -0.0822
     34 C           4.1678   -1.5651   24.5579 C.ar    1  UNL1        0.0160
@<TRIPOS>BOND
     1    18    19    1
     2    19    20    1
     3    19    21    1
     4    19    12    1
     5    12    13   am
     6    13    14    2
     7    13    15   am
     8    15    11    1
     9    11    10    1
    10    10     1    1
    11     1     2    1
    12     2     3    1
    13     3     4    1
    14     4     7    1
    15     7     8    1
    16     4    22    1
    17    22    23    1
    18    23    24   am
    19    24    25    2
    20    24    27    1
    21    27    28   ar
    22    28    29   ar
    23    29    30    1
    24    29    31   ar
    25    31    32   ar
    26    32    33    1
    27    32    34   ar
    28     4     5    1
    29     5     6    1
    30     6     1    1
    31    34    27   ar
    32    12    16    1
    33    15    17    1
    34     8     9    1
    35    23    26    1
@<TRIPOS>MOLECULE
*****
 34 35 0 0 0
SMALL
GASTEIGER

@<TRIPOS>ATOM
      1 N          -3.9141  -17.8157   22.2649 N.3     1  UNL1       -0.2712
      2 C          -5.2737  -18.1717   22.7889 C.3     1  UNL1        0.0723
      3 C          -6.0573  -19.2797   22.1498 C.3     1  UNL1        0.0214
      4 C          -5.4812  -20.0316   20.9868 C.3     1  UNL1        0.0478
      5 C          -4.1216  -19.6756   20.4628 C.3     1  UNL1        0.0214
      6 C          -3.3380  -18.5676   21.1019 C.3     1  UNL1        0.0723
      7 C          -5.3631  -21.0274   19.8711 C.3     1  UNL1        0.1387
      8 O          -6.5643  -21.8145   19.4381 O.3     1  UNL1       -0.3819
      9 H          -6.8388  -22.4065   20.1557 H       1  UNL1        0.2104
     10 C          -3.1305  -16.7077   22.9040 C.3     1  UNL1        0.0937
     11 C          -3.5959  -15.2877   22.7731 C.3     1  UNL1        0.1082
     12 N          -6.9769  -15.0588   24.8385 N.am    1  UNL1       -0.2921
     13 C          -5.5762  -15.4280   24.4489 C.2     1  UNL1        0.3007
     14 O          -4.7553  -16.3067   25.3455 O.2     1  UNL1       -0.2528
     15 N          -4.9965  -14.9185   23.1626 N.am    1  UNL1       -0.2875
     16 H          -7.5157  -14.4821   24.2500 H       1  UNL1        0.1508
     17 H          -5.5354  -14.3418   22.5742 H       1  UNL1        0.1510
     18 C          -6.5191  -14.8059   26.8943 C.3     1  UNL1        0.0197
     19 C          -7.5566  -15.5682   26.1247 C.3     1  UNL1        0.0583
     20 C          -8.5941  -16.3306   25.3551 C.3     1  UNL1        0.0197
     21 C          -8.1364  -16.0777   27.4110 C.3     1  UNL1        0.0197
     22 C          -6.7999  -20.7335   21.1233 C.3     1  UNL1        0.0921
     23 N          -8.0306  -19.9544   21.4816 N.am    1  UNL1       -0.3008
     24 C          -8.8268  -19.2741   20.4077 C.2     1  UNL1        0.2459
     25 O          -8.3922  -19.3730   18.9754 O.2     1  UNL1       -0.2701
     26 H          -8.3158  -19.8896   22.4216 H       1  UNL1        0.1497
     27 C         -10.0575  -18.4951   20.7660 C.ar    1  UNL1        0.0550
     28 C         -10.5734  -17.4380   19.8352 C.ar    1  UNL1        0.0160
     29 C         -11.8041  -16.6590   20.1935 C.ar    1  UNL1        0.0587
     30 CL        -12.3200  -15.6018   19.2626 Cl      1  UNL1       -0.0822
     31 C         -12.5189  -16.9369   21.4825 C.ar    1  UNL1        0.0228
     32 C         -12.0030  -17.9941   22.4134 C.ar    1  UNL1        0.0587
     33 CL        -12.7178  -18.2720   23.7024 Cl      1  UNL1       -0.0822
     34 C         -10.7723  -18.7731   22.0551 C.ar    1  UNL1        0.0160
@<TRIPOS>BOND
     1    18    19    1
     2    19    20    1
     3    19    21    1
     4    19    12    1
     5    12    13   am
     6    13    14    2
     7    13    15   am
     8    15    11    1
     9    11    10    1
    10    10     1    1
    11     1     2    1
    12     2     3    1
    13     3     4    1
    14     4     7    1
    15     7     8    1
    16     4    22    1
    17    22    23    1
    18    23    24   am
    19    24    25    2
    20    24    27    1
    21    27    28   ar
    22    28    29   ar
    23    29    30    1
    24    29    31   ar
    25    31    32   ar
    26    32    33    1
    27    32    34   ar
    28     4     5    1
    29     5     6    1
    30     6     1    1
    31    34    27   ar
    32    12    16    1
    33    15    17    1
    34     8     9    1
    35    23    26    1
@<TRIPOS>MOLECULE
*****
 34 35 0 0 0
SMALL
GASTEIGER

@<TRIPOS>ATOM
      1 N          -3.9753  -17.7350   22.2633 N.3     1  UNL1       -0.2712
      2 C          -5.3982  -17.9485   22.6873 C.3     1  UNL1        0.0723
      3 C          -6.1991  -19.0671   22.0897 C.3     1  UNL1        0.0214
      4 C          -5.5771  -19.9722   21.0679 C.3     1  UNL1        0.0478
      5 C          -4.1543  -19.7587   20.6439 C.3     1  UNL1        0.0214
      6 C          -3.3534  -18.6400   21.2416 C.3     1  UNL1        0.0723
      7 C          -5.4318  -21.0858   20.0735 C.3     1  UNL1        0.1387
      8 O          -6.6519  -21.7252   19.4799 O.3     1  UNL1       -0.3819
      9 H          -7.1433  -22.1910   20.1746 H       1  UNL1        0.2104
     10 C          -3.1744  -16.6163   22.8610 C.3     1  UNL1        0.0937
     11 C          -3.7145  -15.2170   22.8481 C.3     1  UNL1        0.1082
     12 N          -7.1300  -15.1622   24.8685 N.am    1  UNL1       -0.2921
     13 C          -5.6929  -15.4147   24.5206 C.2     1  UNL1        0.3007
     14 O          -4.7970  -16.1173   25.4972 O.2     1  UNL1       -0.2528
     15 N          -5.1516  -14.9646   23.1960 N.am    1  UNL1       -0.2875
     16 H          -7.7179  -14.7011   24.2275 H       1  UNL1        0.1508
     17 H          -5.7396  -14.5034   22.5550 H       1  UNL1        0.1510
     18 C          -8.6826  -16.4676   25.4891 C.3     1  UNL1        0.0197
     19 C          -7.6712  -15.6123   26.1930 C.3     1  UNL1        0.0583
     20 C          -6.6598  -14.7570   26.8970 C.3     1  UNL1        0.0197
     21 C          -8.2125  -16.0624   27.5177 C.3     1  UNL1        0.0197
     22 C          -6.9495  -20.5725   21.1466 C.3     1  UNL1        0.0921
     23 N          -8.1292  -19.7065   21.4756 N.am    1  UNL1       -0.3008
     24 C          -9.1725  -19.4325   20.4333 C.2     1  UNL1        0.2459
     25 O          -9.0360  -20.0245   19.0619 O.2     1  UNL1       -0.2701
     26 H          -8.2188  -19.3179   22.3758 H       1  UNL1        0.1497
     27 C         -10.3521  -18.5664   20.7623 C.ar    1  UNL1        0.0550
     28 C         -11.1280  -18.8036   22.0239 C.ar    1  UNL1        0.0160
     29 C         -12.3077  -17.9376   22.3529 C.ar    1  UNL1        0.0587
     30 CL        -13.0837  -18.1749   23.6146 Cl      1  UNL1       -0.0822
     31 C         -12.7116  -16.8343   21.4204 C.ar    1  UNL1        0.0228
     32 C         -11.9356  -16.5971   20.1587 C.ar    1  UNL1        0.0587
     33 CL        -12.3395  -15.4938   19.2262 Cl      1  UNL1       -0.0822
     34 C         -10.7559  -17.4631   19.8297 C.ar    1  UNL1        0.0160
@<TRIPOS>BOND
     1    18    19    1
     2    19    20    1
     3    19    21    1
     4    19    12    1
     5    12    13   am
     6    13    14    2
     7    13    15   am
     8    15    11    1
     9    11    10    1
    10    10     1    1
    11     1     2    1
    12     2     3    1
    13     3     4    1
    14     4     7    1
    15     7     8    1
    16     4    22    1
    17    22    23    1
    18    23    24   am
    19    24    25    2
    20    24    27    1
    21    27    28   ar
    22    28    29   ar
    23    29    30    1
    24    29    31   ar
    25    31    32   ar
    26    32    33    1
    27    32    34   ar
    28     4     5    1
    29     5     6    1
    30     6     1    1
    31    34    27   ar
    32    12    16    1
    33    15    17    1
    34     8     9    1
    35    23    26    1
@<TRIPOS>MOLECULE
*****
 34 35 0 0 0
SMALL
GASTEIGER

@<TRIPOS>ATOM
      1 N           8.5198   -7.9471   27.2690 N.3     1  UNL1       -0.2712
      2 C           7.4397   -7.6159   26.2824 C.3     1  UNL1        0.0723
      3 C           6.9546   -6.2030   26.1475 C.3     1  UNL1        0.0214
      4 C           7.5496   -5.1212   26.9993 C.3     1  UNL1        0.0478
      5 C           8.6298   -5.4524   27.9860 C.3     1  UNL1        0.0214
      6 C           9.1149   -6.8653   28.1208 C.3     1  UNL1        0.0723
      7 C           7.7997   -3.7602   27.5783 C.3     1  UNL1        0.1387
      8 O           6.9381   -2.6019   27.1709 O.3     1  UNL1       -0.3819
      9 H           7.0809   -2.4074   26.2314 H       1  UNL1        0.2104
     10 C           9.0049   -9.3601   27.4039 C.3     1  UNL1        0.0937
     11 C           8.1231  -10.3993   28.0302 C.3     1  UNL1        0.1082
     12 N           4.3976  -11.7097   27.6381 N.am    1  UNL1       -0.2921
     13 C           5.8631  -11.6788   27.9566 C.2     1  UNL1        0.3007
     14 O           6.5340  -12.8963   28.5198 O.2     1  UNL1       -0.2528
     15 N           6.6576  -10.4302   27.7117 N.am    1  UNL1       -0.2875
     16 H           3.9572  -10.9105   27.2684 H       1  UNL1        0.1508
     17 H           6.2172   -9.6311   27.3420 H       1  UNL1        0.1510
     18 C           3.2813  -12.4818   29.2683 C.3     1  UNL1        0.0197
     19 C           3.6031  -12.9582   27.8829 C.3     1  UNL1        0.0583
     20 C           3.9249  -13.4346   26.4975 C.3     1  UNL1        0.0197
     21 C           2.8085  -14.2067   28.1276 C.3     1  UNL1        0.0197
     22 C           6.5563   -4.3173   26.2137 C.3     1  UNL1        0.0921
     23 N           6.5612   -4.3764   24.7149 N.am    1  UNL1       -0.3008
     24 C           5.7982   -3.3575   23.9216 C.2     1  UNL1        0.2459
     25 O           5.0301   -2.2794   24.6271 O.2     1  UNL1       -0.2701
     26 H           7.0654   -5.0840   24.2519 H       1  UNL1        0.1497
     27 C           5.8031   -3.4166   22.4228 C.ar    1  UNL1        0.0550
     28 C           7.0195   -2.9838   21.6592 C.ar    1  UNL1        0.0160
     29 C           7.0245   -3.0429   20.1604 C.ar    1  UNL1        0.0587
     30 CL          8.2410   -2.6101   19.3968 Cl      1  UNL1       -0.0822
     31 C           5.8132   -3.5347   19.4251 C.ar    1  UNL1        0.0228
     32 C           4.5967   -3.9675   20.1888 C.ar    1  UNL1        0.0587
     33 CL          3.3853   -4.4593   19.4535 Cl      1  UNL1       -0.0822
     34 C           4.5917   -3.9084   21.6875 C.ar    1  UNL1        0.0160
@<TRIPOS>BOND
     1    18    19    1
     2    19    20    1
     3    19    21    1
     4    19    12    1
     5    12    13   am
     6    13    14    2
     7    13    15   am
     8    15    11    1
     9    11    10    1
    10    10     1    1
    11     1     2    1
    12     2     3    1
    13     3     4    1
    14     4     7    1
    15     7     8    1
    16     4    22    1
    17    22    23    1
    18    23    24   am
    19    24    25    2
    20    24    27    1
    21    27    28   ar
    22    28    29   ar
    23    29    30    1
    24    29    31   ar
    25    31    32   ar
    26    32    33    1
    27    32    34   ar
    28     4     5    1
    29     5     6    1
    30     6     1    1
    31    34    27   ar
    32    12    16    1
    33    15    17    1
    34     8     9    1
    35    23    26    1
@<TRIPOS>MOLECULE
*****
 34 35 0 0 0
SMALL
GASTEIGER

@<TRIPOS>ATOM
      1 N           6.5173   -4.1031   22.2979 N.3     1  UNL1       -0.2712
      2 C           5.0338   -3.8952   22.2215 C.3     1  UNL1        0.0723
      3 C           4.4144   -3.3672   20.9615 C.3     1  UNL1        0.0214
      4 C           5.2785   -3.0473   19.7779 C.3     1  UNL1        0.0478
      5 C           6.7620   -3.2552   19.8544 C.3     1  UNL1        0.0214
      6 C           7.3814   -3.7832   21.1144 C.3     1  UNL1        0.0723
      7 C           5.6753   -2.6013   18.4018 C.3     1  UNL1        0.1387
      8 O           4.6329   -2.4438   17.3347 O.3     1  UNL1       -0.3819
      9 H           4.2548   -3.3112   17.1215 H       1  UNL1        0.2104
     10 C           7.1367   -4.6310   23.5580 C.3     1  UNL1        0.0937
     11 C           6.7112   -4.0851   24.8887 C.3     1  UNL1        0.1082
     12 N           6.8792   -6.0609   28.3265 N.am    1  UNL1       -0.2921
     13 C           7.2374   -5.1239   27.2112 C.2     1  UNL1        0.3007
     14 O           8.4801   -4.2889   27.3032 O.2     1  UNL1       -0.2528
     15 N           6.3529   -5.0221   26.0039 N.am    1  UNL1       -0.2875
     16 H           6.0636   -6.6090   28.2661 H       1  UNL1        0.1508
     17 H           5.5374   -5.5702   25.9436 H       1  UNL1        0.1510
     18 C           8.6333   -7.1500   28.8132 C.3     1  UNL1        0.0197
     19 C           7.7636   -6.1628   29.5337 C.3     1  UNL1        0.0583
     20 C           6.8940   -5.1756   30.2541 C.3     1  UNL1        0.0197
     21 C           8.6481   -6.2647   30.7410 C.3     1  UNL1        0.0197
     22 C           3.9327   -2.6844   19.2235 C.3     1  UNL1        0.0921
     23 N           3.0284   -1.7660   19.9906 N.am    1  UNL1       -0.3008
     24 C           2.5286   -0.5025   19.3554 C.2     1  UNL1        0.2459
     25 O           2.9333   -0.1574   17.9528 O.2     1  UNL1       -0.2701
     26 H           2.7628   -1.9925   20.9112 H       1  UNL1        0.1497
     27 C           1.6243    0.4160   20.1225 C.ar    1  UNL1        0.0550
     28 C           0.7654    1.4053   19.3920 C.ar    1  UNL1        0.0160
     29 C          -0.1390    2.3237   20.1592 C.ar    1  UNL1        0.0587
     30 CL         -0.9979    3.3131   19.4287 Cl      1  UNL1       -0.0822
     31 C          -0.1846    2.2529   21.6568 C.ar    1  UNL1        0.0228
     32 C           0.6743    1.2635   22.3873 C.ar    1  UNL1        0.0587
     33 CL          0.6287    1.1927   23.8849 Cl      1  UNL1       -0.0822
     34 C           1.5787    0.3451   21.6202 C.ar    1  UNL1        0.0160
@<TRIPOS>BOND
     1    18    19    1
     2    19    20    1
     3    19    21    1
     4    19    12    1
     5    12    13   am
     6    13    14    2
     7    13    15   am
     8    15    11    1
     9    11    10    1
    10    10     1    1
    11     1     2    1
    12     2     3    1
    13     3     4    1
    14     4     7    1
    15     7     8    1
    16     4    22    1
    17    22    23    1
    18    23    24   am
    19    24    25    2
    20    24    27    1
    21    27    28   ar
    22    28    29   ar
    23    29    30    1
    24    29    31   ar
    25    31    32   ar
    26    32    33    1
    27    32    34   ar
    28     4     5    1
    29     5     6    1
    30     6     1    1
    31    34    27   ar
    32    12    16    1
    33    15    17    1
    34     8     9    1
    35    23    26    1
@<TRIPOS>MOLECULE
*****
 34 35 0 0 0
SMALL
GASTEIGER

@<TRIPOS>ATOM
      1 N           6.3623   -2.0971   28.1605 N.3     1  UNL1       -0.2712
      2 C           6.4976   -1.3348   29.4452 C.3     1  UNL1        0.0723
      3 C           6.6655   -2.0721   30.7407 C.3     1  UNL1        0.0214
      4 C           6.6980   -3.5717   30.7514 C.3     1  UNL1        0.0478
      5 C           6.5627   -4.3340   29.4667 C.3     1  UNL1        0.0214
      6 C           6.3949   -3.5967   28.1712 C.3     1  UNL1        0.0723
      7 C           6.7885   -4.9759   31.2710 C.3     1  UNL1        0.1387
      8 O           6.3243   -5.2923   32.6618 O.3     1  UNL1       -0.3819
      9 H           6.8973   -4.8445   33.3037 H       1  UNL1        0.2104
     10 C           6.1945   -1.3598   26.8650 C.3     1  UNL1        0.0937
     11 C           4.9209   -1.4958   26.0842 C.3     1  UNL1        0.1082
     12 N           1.6756   -0.6349   28.2001 N.am    1  UNL1       -0.2921
     13 C           2.9826   -0.4757   27.4815 C.2     1  UNL1        0.3007
     14 O           3.6582    0.8630   27.4414 O.2     1  UNL1       -0.2528
     15 N           3.6140   -1.6551   26.8029 N.am    1  UNL1       -0.2875
     16 H           1.2322   -1.5135   28.2264 H       1  UNL1        0.1508
     17 H           3.1705   -2.5337   26.8292 H       1  UNL1        0.1510
     18 C           0.2748    0.8519   27.6284 C.3     1  UNL1        0.0197
     19 C           1.0443    0.5444   28.8787 C.3     1  UNL1        0.0583
     20 C           1.8137    0.2369   30.1291 C.3     1  UNL1        0.0197
     21 C           0.4129    1.7238   29.5574 C.3     1  UNL1        0.0197
     22 C           6.8648   -3.2970   32.2166 C.3     1  UNL1        0.0921
     23 N           6.3366   -2.0227   32.8057 N.am    1  UNL1       -0.3008
     24 C           4.9942   -2.0055   33.4747 C.2     1  UNL1        0.2459
     25 O           4.1800   -3.2628   33.5546 O.2     1  UNL1       -0.2701
     26 H           6.8710   -1.1975   32.7532 H       1  UNL1        0.1497
     27 C           4.4659   -0.7312   34.0638 C.ar    1  UNL1        0.0550
     28 C           4.7622   -0.3864   35.4932 C.ar    1  UNL1        0.0160
     29 C           4.2340    0.8879   36.0823 C.ar    1  UNL1        0.0587
     30 CL          4.5303    1.2328   37.5118 Cl      1  UNL1       -0.0822
     31 C           3.4095    1.8175   35.2420 C.ar    1  UNL1        0.0228
     32 C           3.1132    1.4726   33.8125 C.ar    1  UNL1        0.0587
     33 CL          2.2886    2.4021   32.9722 Cl      1  UNL1       -0.0822
     34 C           3.6414    0.1983   33.2234 C.ar    1  UNL1        0.0160
@<TRIPOS>BOND
     1    18    19    1
     2    19    20    1
     3    19    21    1
     4    19    12    1
     5    12    13   am
     6    13    14    2
     7    13    15   am
     8    15    11    1
     9    11    10    1
    10    10     1    1
    11     1     2    1
    12     2     3    1
    13     3     4    1
    14     4     7    1
    15     7     8    1
    16     4    22    1
    17    22    23    1
    18    23    24   am
    19    24    25    2
    20    24    27    1
    21    27    28   ar
    22    28    29   ar
    23    29    30    1
    24    29    31   ar
    25    31    32   ar
    26    32    33    1
    27    32    34   ar
    28     4     5    1
    29     5     6    1
    30     6     1    1
    31    34    27   ar
    32    12    16    1
    33    15    17    1
    34     8     9    1
    35    23    26    1
