@<TRIPOS>MOLECULE
*****
 27 29 0 0 0
SMALL
GASTEIGER

@<TRIPOS>ATOM
      1 C         -10.0750  -18.7057   20.9773 C.ar    1  UNL1        0.0032
      2 C         -10.5360  -19.4679   19.7703 C.ar    1  UNL1        0.0369
      3 C          -9.5313  -20.1056   18.8571 C.ar    1  UNL1        0.1387
      4 C          -8.0656  -19.9810   19.1508 C.ar    1  UNL1        0.0369
      5 C          -7.6046  -19.2189   20.3577 C.ar    1  UNL1        0.0030
      6 C          -8.6093  -18.5812   21.2709 C.ar    1  UNL1        0.0002
      7 C          -6.1389  -19.0943   20.6513 C.ar    1  UNL1        0.0001
      8 C          -5.6238  -19.3774   22.0314 C.ar    1  UNL1        0.0000
      9 C          -4.1581  -19.2528   22.3250 C.ar    1  UNL1        0.0001
     10 C          -3.2075  -18.8452   21.2386 C.ar    1  UNL1        0.0030
     11 C          -1.7418  -18.7206   21.5323 C.ar    1  UNL1        0.0369
     12 C          -0.7912  -18.3129   20.4459 C.ar    1  UNL1        0.1387
     13 C          -1.3064  -18.0298   19.0658 C.ar    1  UNL1        0.0369
     14 C          -2.7721  -18.1544   18.7722 C.ar    1  UNL1        0.0031
     15 C          -3.7226  -18.5620   19.8586 C.ar    1  UNL1        0.0002
     16 C          -5.1883  -18.6866   19.5650 C.ar    1  UNL1        0.0000
     17 O           0.6744  -18.1883   20.7395 O.3     1  UNL1       -0.4714
     18 C           1.4695  -17.0725   20.1289 C.3     1  UNL1        0.2525
     19 C         -11.7865  -18.8958   22.9227 C.2     1  UNL1        0.0577
     20 C         -11.0797  -18.0681   21.8905 C.2     1  UNL1        0.0048
     21 C         -14.2121  -18.3180   26.0102 C.3     1  UNL1        0.1109
     22 N         -13.2074  -18.9556   25.0969 N.am    1  UNL1       -0.2992
     23 C         -12.7912  -18.2581   23.8359 C.2     1  UNL1        0.2460
     24 O         -13.3797  -16.9229   23.4881 O.2     1  UNL1       -0.2701
     25 H         -12.8211  -19.8319   25.3252 H       1  UNL1        0.1498
     26 O          -9.9923  -20.8678   17.6503 O.3     1  UNL1       -0.4714
     27 C          -8.9986  -21.6125   16.8088 C.3     1  UNL1        0.2525
@<TRIPOS>BOND
     1    21    22    1
     2    22    23   am
     3    23    24    2
     4    23    19    1
     5    19    20    2
     6    20     1    1
     7     1     2   ar
     8     2     3   ar
     9     3    26    1
    10    26    27    1
    11     3     4   ar
    12     4     5   ar
    13     5     7    1
    14     7     8   ar
    15     8     9   ar
    16     9    10   ar
    17    10    11   ar
    18    11    12   ar
    19    12    17    1
    20    17    18    1
    21    12    13   ar
    22    13    14   ar
    23    14    15   ar
    24    15    16   ar
    25     5     6   ar
    26     6     1   ar
    27    16     7   ar
    28    15    10   ar
    29    22    25    1
@<TRIPOS>MOLECULE
*****
 27 29 0 0 0
SMALL
GASTEIGER

@<TRIPOS>ATOM
      1 C          -1.8680    3.1517   25.6271 C.ar    1  UNL1        0.0032
      2 C          -1.5751    2.8749   27.0720 C.ar    1  UNL1        0.0369
      3 C          -0.4418    1.9665   27.4468 C.ar    1  UNL1        0.1387
      4 C           0.3986    1.3349   26.3768 C.ar    1  UNL1        0.0369
      5 C           0.1056    1.6117   24.9320 C.ar    1  UNL1        0.0030
      6 C          -1.0276    2.5201   24.5571 C.ar    1  UNL1        0.0002
      7 C           0.9460    0.9801   23.8619 C.ar    1  UNL1        0.0001
      8 C           2.1594    0.1812   24.2351 C.ar    1  UNL1        0.0000
      9 C           2.9997   -0.4504   23.1651 C.ar    1  UNL1        0.0001
     10 C           2.6267   -0.2830   21.7219 C.ar    1  UNL1        0.0030
     11 C           3.4670   -0.9146   20.6519 C.ar    1  UNL1        0.0369
     12 C           3.0940   -0.7471   19.2087 C.ar    1  UNL1        0.1387
     13 C           1.8805    0.0519   18.8355 C.ar    1  UNL1        0.0369
     14 C           1.0402    0.6834   19.9056 C.ar    1  UNL1        0.0031
     15 C           1.4133    0.5160   21.3487 C.ar    1  UNL1        0.0002
     16 C           0.5730    1.1475   22.4188 C.ar    1  UNL1        0.0000
     17 O           3.9343   -1.3787   18.1387 O.3     1  UNL1       -0.4714
     18 C           3.8694   -0.8626   16.7317 C.3     1  UNL1        0.2525
     19 C          -4.4172    3.6416   25.5176 C.2     1  UNL1        0.0577
     20 C          -3.0013    4.0600   25.2522 C.2     1  UNL1        0.0048
     21 C          -7.7643    4.9697   23.8494 C.3     1  UNL1        0.1109
     22 N          -6.6310    4.0613   24.2242 N.am    1  UNL1       -0.2992
     23 C          -5.5504    4.5500   25.1427 C.2     1  UNL1        0.2460
     24 O          -5.6032    5.9471   25.6864 O.2     1  UNL1       -0.2701
     25 H          -6.5964    3.1444   23.8674 H       1  UNL1        0.1498
     26 O          -0.1489    1.6898   28.8917 O.3     1  UNL1       -0.4714
     27 C           0.7034    0.5156   29.2726 C.3     1  UNL1        0.2525
@<TRIPOS>BOND
     1    21    22    1
     2    22    23   am
     3    23    24    2
     4    23    19    1
     5    19    20    2
     6    20     1    1
     7     1     2   ar
     8     2     3   ar
     9     3    26    1
    10    26    27    1
    11     3     4   ar
    12     4     5   ar
    13     5     7    1
    14     7     8   ar
    15     8     9   ar
    16     9    10   ar
    17    10    11   ar
    18    11    12   ar
    19    12    17    1
    20    17    18    1
    21    12    13   ar
    22    13    14   ar
    23    14    15   ar
    24    15    16   ar
    25     5     6   ar
    26     6     1   ar
    27    16     7   ar
    28    15    10   ar
    29    22    25    1
@<TRIPOS>MOLECULE
*****
 27 29 0 0 0
SMALL
GASTEIGER

@<TRIPOS>ATOM
      1 C          -1.0850    2.9751   25.7934 C.ar    1  UNL1        0.0032
      2 C          -0.3735    2.8960   27.1117 C.ar    1  UNL1        0.0369
      3 C           0.8902    2.0975   27.2351 C.ar    1  UNL1        0.1387
      4 C           1.4426    1.3781   26.0403 C.ar    1  UNL1        0.0369
      5 C           0.7312    1.4573   24.7222 C.ar    1  UNL1        0.0030
      6 C          -0.5326    2.2558   24.5987 C.ar    1  UNL1        0.0002
      7 C           1.2835    0.7379   23.5274 C.ar    1  UNL1        0.0001
      8 C           0.7265    1.0136   22.1622 C.ar    1  UNL1        0.0000
      9 C           1.2788    0.2942   20.9675 C.ar    1  UNL1        0.0001
     10 C           2.3883   -0.7008   21.1380 C.ar    1  UNL1        0.0030
     11 C           2.9406   -1.4202   19.9431 C.ar    1  UNL1        0.0369
     12 C           4.0501   -2.4152   20.1136 C.ar    1  UNL1        0.1387
     13 C           4.6072   -2.6909   21.4788 C.ar    1  UNL1        0.0369
     14 C           4.0548   -1.9715   22.6735 C.ar    1  UNL1        0.0031
     15 C           2.9454   -0.9765   22.5031 C.ar    1  UNL1        0.0002
     16 C           2.3930   -0.2571   23.6978 C.ar    1  UNL1        0.0000
     17 O           4.6024   -3.1346   18.9189 O.3     1  UNL1       -0.4714
     18 C           4.5541   -4.6326   18.8568 C.3     1  UNL1        0.2525
     19 C          -3.4291    3.6321   26.7011 C.2     1  UNL1        0.0577
     20 C          -2.3488    3.7736   25.6700 C.2     1  UNL1        0.0048
     21 C          -6.3086    6.2430   27.5021 C.3     1  UNL1        0.1109
     22 N          -5.0448    5.4445   27.6255 N.am    1  UNL1       -0.2992
     23 C          -4.6929    4.4306   26.5776 C.2     1  UNL1        0.2460
     24 O          -5.6048    4.2151   25.4062 O.2     1  UNL1       -0.2701
     25 H          -4.4463    5.5859   28.3943 H       1  UNL1        0.1498
     26 O           1.6017    2.0184   28.5533 O.3     1  UNL1       -0.4714
     27 C           1.3210    0.8809   29.4899 C.3     1  UNL1        0.2525
@<TRIPOS>BOND
     1    21    22    1
     2    22    23   am
     3    23    24    2
     4    23    19    1
     5    19    20    2
     6    20     1    1
     7     1     2   ar
     8     2     3   ar
     9     3    26    1
    10    26    27    1
    11     3     4   ar
    12     4     5   ar
    13     5     7    1
    14     7     8   ar
    15     8     9   ar
    16     9    10   ar
    17    10    11   ar
    18    11    12   ar
    19    12    17    1
    20    17    18    1
    21    12    13   ar
    22    13    14   ar
    23    14    15   ar
    24    15    16   ar
    25     5     6   ar
    26     6     1   ar
    27    16     7   ar
    28    15    10   ar
    29    22    25    1
@<TRIPOS>MOLECULE
*****
 27 29 0 0 0
SMALL
GASTEIGER

@<TRIPOS>ATOM
      1 C          -0.6896    2.5959   25.2408 C.ar    1  UNL1        0.0032
      2 C          -1.3987    3.7358   24.5716 C.ar    1  UNL1        0.0369
      3 C          -1.3283    3.8916   23.0813 C.ar    1  UNL1        0.1387
      4 C          -0.5489    2.9074   22.2603 C.ar    1  UNL1        0.0369
      5 C           0.1602    1.7676   22.9296 C.ar    1  UNL1        0.0030
      6 C           0.0898    1.6118   24.4198 C.ar    1  UNL1        0.0002
      7 C           0.9396    0.7834   22.1086 C.ar    1  UNL1        0.0001
      8 C           0.5522    0.5225   20.6832 C.ar    1  UNL1        0.0000
      9 C           1.3316   -0.4617   19.8623 C.ar    1  UNL1        0.0001
     10 C           2.4985   -1.1848   20.4668 C.ar    1  UNL1        0.0030
     11 C           3.2780   -2.1690   19.6458 C.ar    1  UNL1        0.0369
     12 C           4.4449   -2.8921   20.2503 C.ar    1  UNL1        0.1387
     13 C           4.8324   -2.6311   21.6757 C.ar    1  UNL1        0.0369
     14 C           4.0529   -1.6470   22.4966 C.ar    1  UNL1        0.0031
     15 C           2.8860   -0.9238   21.8922 C.ar    1  UNL1        0.0002
     16 C           2.1065    0.0603   22.7131 C.ar    1  UNL1        0.0000
     17 O           5.2243   -3.8762   19.4294 O.3     1  UNL1       -0.4714
     18 C           4.5406   -5.0810   18.8540 C.3     1  UNL1        0.2525
     19 C          -0.0455    1.3039   27.4009 C.2     1  UNL1        0.0577
     20 C          -0.7599    2.4402   26.7310 C.2     1  UNL1        0.0048
     21 C           0.4551    2.0137   31.2733 C.3     1  UNL1        0.1109
     22 N           0.5255    2.1694   29.7831 N.am    1  UNL1       -0.2992
     23 C          -0.1159    1.1481   28.8911 C.2     1  UNL1        0.2460
     24 O          -0.8276   -0.0290   29.4894 O.2     1  UNL1       -0.2701
     25 H           0.9926    2.9420   29.3904 H       1  UNL1        0.1498
     26 O          -2.0374    5.0314   22.4121 O.3     1  UNL1       -0.4714
     27 C          -3.2584    4.7707   21.5807 C.3     1  UNL1        0.2525
@<TRIPOS>BOND
     1    21    22    1
     2    22    23   am
     3    23    24    2
     4    23    19    1
     5    19    20    2
     6    20     1    1
     7     1     2   ar
     8     2     3   ar
     9     3    26    1
    10    26    27    1
    11     3     4   ar
    12     4     5   ar
    13     5     7    1
    14     7     8   ar
    15     8     9   ar
    16     9    10   ar
    17    10    11   ar
    18    11    12   ar
    19    12    17    1
    20    17    18    1
    21    12    13   ar
    22    13    14   ar
    23    14    15   ar
    24    15    16   ar
    25     5     6   ar
    26     6     1   ar
    27    16     7   ar
    28    15    10   ar
    29    22    25    1
@<TRIPOS>MOLECULE
*****
 27 29 0 0 0
SMALL
GASTEIGER

@<TRIPOS>ATOM
      1 C          -2.3390    4.0668   20.3064 C.ar    1  UNL1        0.0032
      2 C          -2.2622    4.9747   19.1147 C.ar    1  UNL1        0.0369
      3 C          -1.2522    4.7136   18.0369 C.ar    1  UNL1        0.1387
      4 C          -0.3190    3.5446   18.1507 C.ar    1  UNL1        0.0369
      5 C          -0.3959    2.6368   19.3423 C.ar    1  UNL1        0.0030
      6 C          -1.4059    2.8979   20.4201 C.ar    1  UNL1        0.0002
      7 C           0.5372    1.4679   19.4561 C.ar    1  UNL1        0.0001
      8 C           0.4452    0.5469   20.6365 C.ar    1  UNL1        0.0000
      9 C           1.3783   -0.6220   20.7502 C.ar    1  UNL1        0.0001
     10 C           2.4034   -0.8699   19.6836 C.ar    1  UNL1        0.0030
     11 C           3.3365   -2.0389   19.7974 C.ar    1  UNL1        0.0369
     12 C           4.3616   -2.2868   18.7307 C.ar    1  UNL1        0.1387
     13 C           4.4536   -1.3658   17.5503 C.ar    1  UNL1        0.0369
     14 C           3.5205   -0.1969   17.4366 C.ar    1  UNL1        0.0031
     15 C           2.4954    0.0510   18.5032 C.ar    1  UNL1        0.0002
     16 C           1.5623    1.2199   18.3895 C.ar    1  UNL1        0.0000
     17 O           5.2947   -3.4557   18.8445 O.3     1  UNL1       -0.4714
     18 C           5.7550   -3.9193   20.1948 C.3     1  UNL1        0.2525
     19 C          -4.3781    3.2880   21.7155 C.2     1  UNL1        0.0577
     20 C          -3.3490    4.3279   21.3842 C.2     1  UNL1        0.0048
     21 C          -7.7371    4.3880   23.5203 C.3     1  UNL1        0.1109
     22 N          -6.7271    4.1269   22.4425 N.am    1  UNL1       -0.2992
     23 C          -5.3881    3.5491   22.7934 C.2     1  UNL1        0.2460
     24 O          -5.0591    3.2323   24.2222 O.2     1  UNL1       -0.2701
     25 H          -6.9431    4.3348   21.5047 H       1  UNL1        0.1498
     26 O          -1.1753    5.6214   16.8453 O.3     1  UNL1       -0.4714
     27 C          -2.4212    6.2606   16.3077 C.3     1  UNL1        0.2525
@<TRIPOS>BOND
     1    21    22    1
     2    22    23   am
     3    23    24    2
     4    23    19    1
     5    19    20    2
     6    20     1    1
     7     1     2   ar
     8     2     3   ar
     9     3    26    1
    10    26    27    1
    11     3     4   ar
    12     4     5   ar
    13     5     7    1
    14     7     8   ar
    15     8     9   ar
    16     9    10   ar
    17    10    11   ar
    18    11    12   ar
    19    12    17    1
    20    17    18    1
    21    12    13   ar
    22    13    14   ar
    23    14    15   ar
    24    15    16   ar
    25     5     6   ar
    26     6     1   ar
    27    16     7   ar
    28    15    10   ar
    29    22    25    1
@<TRIPOS>MOLECULE
*****
 27 29 0 0 0
SMALL
GASTEIGER

@<TRIPOS>ATOM
      1 C           6.9013   -4.7931   27.0532 C.ar    1  UNL1        0.0032
      2 C           7.4757   -6.1663   27.2393 C.ar    1  UNL1        0.0369
      3 C           7.9077   -6.9665   26.0464 C.ar    1  UNL1        0.1387
      4 C           7.7652   -6.3936   24.6674 C.ar    1  UNL1        0.0369
      5 C           7.1908   -5.0205   24.4813 C.ar    1  UNL1        0.0030
      6 C           6.7589   -4.2202   25.6742 C.ar    1  UNL1        0.0002
      7 C           7.0484   -4.4476   23.1023 C.ar    1  UNL1        0.0001
      8 C           8.2302   -4.4118   22.1793 C.ar    1  UNL1        0.0000
      9 C           8.0877   -3.8389   20.8004 C.ar    1  UNL1        0.0001
     10 C           6.7634   -3.3018   20.3445 C.ar    1  UNL1        0.0030
     11 C           6.6210   -2.7288   18.9655 C.ar    1  UNL1        0.0369
     12 C           5.2967   -2.1917   18.5097 C.ar    1  UNL1        0.1387
     13 C           4.1149   -2.2276   19.4328 C.ar    1  UNL1        0.0369
     14 C           4.2573   -2.8005   20.8117 C.ar    1  UNL1        0.0031
     15 C           5.5816   -3.3376   21.2676 C.ar    1  UNL1        0.0002
     16 C           5.7241   -3.9105   22.6465 C.ar    1  UNL1        0.0000
     17 O           5.1542   -1.6188   17.1308 O.3     1  UNL1       -0.4714
     18 C           3.8899   -0.9132   16.7387 C.3     1  UNL1        0.2525
     19 C           6.9635   -4.3596   29.6141 C.2     1  UNL1        0.0577
     20 C           6.4693   -3.9928   28.2461 C.2     1  UNL1        0.0048
     21 C           5.6354   -1.3435   31.8253 C.3     1  UNL1        0.1109
     22 N           6.0674   -2.1437   30.6324 N.am    1  UNL1       -0.2992
     23 C           6.5315   -3.5593   30.8070 C.2     1  UNL1        0.2460
     24 O           6.5637   -4.1748   32.1746 O.2     1  UNL1       -0.2701
     25 H           6.0463   -1.7398   29.7348 H       1  UNL1        0.1498
     26 O           8.4820   -8.3396   26.2324 O.3     1  UNL1       -0.4714
     27 C           8.4332   -8.9968   27.5799 C.3     1  UNL1        0.2525
@<TRIPOS>BOND
     1    21    22    1
     2    22    23   am
     3    23    24    2
     4    23    19    1
     5    19    20    2
     6    20     1    1
     7     1     2   ar
     8     2     3   ar
     9     3    26    1
    10    26    27    1
    11     3     4   ar
    12     4     5   ar
    13     5     7    1
    14     7     8   ar
    15     8     9   ar
    16     9    10   ar
    17    10    11   ar
    18    11    12   ar
    19    12    17    1
    20    17    18    1
    21    12    13   ar
    22    13    14   ar
    23    14    15   ar
    24    15    16   ar
    25     5     6   ar
    26     6     1   ar
    27    16     7   ar
    28    15    10   ar
    29    22    25    1
@<TRIPOS>MOLECULE
*****
 27 29 0 0 0
SMALL
GASTEIGER

@<TRIPOS>ATOM
      1 C           7.3131   -4.7644   24.5746 C.ar    1  UNL1        0.0032
      2 C           8.1722   -5.1278   23.3998 C.ar    1  UNL1        0.0369
      3 C           7.8853   -4.5391   22.0503 C.ar    1  UNL1        0.1387
      4 C           6.7394   -3.5870   21.8755 C.ar    1  UNL1        0.0369
      5 C           5.8804   -3.2236   23.0503 C.ar    1  UNL1        0.0030
      6 C           6.1672   -3.8123   24.3998 C.ar    1  UNL1        0.0002
      7 C           4.7345   -2.2716   22.8756 C.ar    1  UNL1        0.0001
      8 C           4.2912   -1.4129   24.0228 C.ar    1  UNL1        0.0000
      9 C           3.1453   -0.4609   23.8480 C.ar    1  UNL1        0.0001
     10 C           2.4427   -0.3675   22.5260 C.ar    1  UNL1        0.0030
     11 C           1.2968    0.5846   22.3513 C.ar    1  UNL1        0.0369
     12 C           0.5942    0.6780   21.0293 C.ar    1  UNL1        0.1387
     13 C           1.0376   -0.1807   19.8820 C.ar    1  UNL1        0.0369
     14 C           2.1835   -1.1327   20.0568 C.ar    1  UNL1        0.0031
     15 C           2.8860   -1.2261   21.3788 C.ar    1  UNL1        0.0002
     16 C           4.0319   -2.1782   21.5536 C.ar    1  UNL1        0.0000
     17 O          -0.5516    1.6300   20.8545 O.3     1  UNL1       -0.4714
     18 C          -0.6647    2.8377   21.7371 C.3     1  UNL1        0.2525
     19 C           6.7397   -4.9912   27.0984 C.2     1  UNL1        0.0577
     20 C           7.6000   -5.3531   25.9241 C.2     1  UNL1        0.0048
     21 C           6.9118   -5.4290   31.0391 C.3     1  UNL1        0.1109
     22 N           6.6250   -4.8403   29.6896 N.am    1  UNL1       -0.2992
     23 C           7.0265   -5.5799   28.4479 C.2     1  UNL1        0.2460
     24 O           7.7150   -6.9082   28.5558 O.2     1  UNL1       -0.2701
     25 H           6.1731   -3.9685   29.6188 H       1  UNL1        0.1498
     26 O           8.7443   -4.9025   20.8755 O.3     1  UNL1       -0.4714
     27 C           9.4636   -3.8301   20.1121 C.3     1  UNL1        0.2525
@<TRIPOS>BOND
     1    21    22    1
     2    22    23   am
     3    23    24    2
     4    23    19    1
     5    19    20    2
     6    20     1    1
     7     1     2   ar
     8     2     3   ar
     9     3    26    1
    10    26    27    1
    11     3     4   ar
    12     4     5   ar
    13     5     7    1
    14     7     8   ar
    15     8     9   ar
    16     9    10   ar
    17    10    11   ar
    18    11    12   ar
    19    12    17    1
    20    17    18    1
    21    12    13   ar
    22    13    14   ar
    23    14    15   ar
    24    15    16   ar
    25     5     6   ar
    26     6     1   ar
    27    16     7   ar
    28    15    10   ar
    29    22    25    1
@<TRIPOS>MOLECULE
*****
 27 29 0 0 0
SMALL
GASTEIGER

@<TRIPOS>ATOM
      1 C           4.3788   -2.3468   23.1474 C.ar    1  UNL1        0.0032
      2 C           4.9343   -3.4889   22.3491 C.ar    1  UNL1        0.0369
      3 C           4.6545   -3.5820   20.8784 C.ar    1  UNL1        0.1387
      4 C           3.8193   -2.5330   20.2059 C.ar    1  UNL1        0.0369
      5 C           3.2639   -1.3910   21.0042 C.ar    1  UNL1        0.0030
      6 C           3.5437   -1.2979   22.4750 C.ar    1  UNL1        0.0002
      7 C           2.4287   -0.3420   20.3318 C.ar    1  UNL1        0.0001
      8 C           2.5881   -0.0843   18.8627 C.ar    1  UNL1        0.0000
      9 C           1.7529    0.9647   18.1903 C.ar    1  UNL1        0.0001
     10 C           0.7584    1.7559   18.9870 C.ar    1  UNL1        0.0030
     11 C          -0.0769    2.8049   18.3146 C.ar    1  UNL1        0.0369
     12 C          -1.0714    3.5962   19.1113 C.ar    1  UNL1        0.1387
     13 C          -1.2308    3.3385   20.5804 C.ar    1  UNL1        0.0369
     14 C          -0.3956    2.2896   21.2528 C.ar    1  UNL1        0.0031
     15 C           0.5990    1.4983   20.4561 C.ar    1  UNL1        0.0002
     16 C           1.4342    0.4493   21.1285 C.ar    1  UNL1        0.0000
     17 O          -1.9066    4.6452   18.4389 O.3     1  UNL1       -0.4714
     18 C          -2.8128    4.2689   17.3043 C.3     1  UNL1        0.2525
     19 C           3.8132   -1.3713   25.4880 C.2     1  UNL1        0.0577
     20 C           4.6586   -2.2537   24.6181 C.2     1  UNL1        0.0048
     21 C           5.7444   -1.4923   28.9530 C.3     1  UNL1        0.1109
     22 N           5.4646   -1.5854   27.4822 N.am    1  UNL1       -0.2992
     23 C           4.0929   -1.2782   26.9588 C.2     1  UNL1        0.2460
     24 O           3.0009   -0.8779   27.9061 O.2     1  UNL1       -0.2701
     25 H           6.1813   -1.8481   26.8605 H       1  UNL1        0.1498
     26 O           5.2099   -4.7240   20.0801 O.3     1  UNL1       -0.4714
     27 C           4.5660   -5.1157   18.7832 C.3     1  UNL1        0.2525
@<TRIPOS>BOND
     1    21    22    1
     2    22    23   am
     3    23    24    2
     4    23    19    1
     5    19    20    2
     6    20     1    1
     7     1     2   ar
     8     2     3   ar
     9     3    26    1
    10    26    27    1
    11     3     4   ar
    12     4     5   ar
    13     5     7    1
    14     7     8   ar
    15     8     9   ar
    16     9    10   ar
    17    10    11   ar
    18    11    12   ar
    19    12    17    1
    20    17    18    1
    21    12    13   ar
    22    13    14   ar
    23    14    15   ar
    24    15    16   ar
    25     5     6   ar
    26     6     1   ar
    27    16     7   ar
    28    15    10   ar
    29    22    25    1
@<TRIPOS>MOLECULE
*****
 27 29 0 0 0
SMALL
GASTEIGER

@<TRIPOS>ATOM
      1 C           1.2568    0.4855   20.5368 C.ar    1  UNL1        0.0032
      2 C           0.2293    1.4105   19.9547 C.ar    1  UNL1        0.0369
      3 C          -0.5112    2.3642   20.8448 C.ar    1  UNL1        0.1387
      4 C          -0.2242    2.3929   22.3168 C.ar    1  UNL1        0.0369
      5 C           0.8032    1.4679   22.8988 C.ar    1  UNL1        0.0030
      6 C           1.5437    0.5142   22.0088 C.ar    1  UNL1        0.0002
      7 C           1.0901    1.4965   24.3709 C.ar    1  UNL1        0.0001
      8 C           2.4550    1.8788   24.8616 C.ar    1  UNL1        0.0000
      9 C           2.7419    1.9074   26.3336 C.ar    1  UNL1        0.0001
     10 C           1.6639    1.5538   27.3149 C.ar    1  UNL1        0.0030
     11 C           1.9508    1.5825   28.7870 C.ar    1  UNL1        0.0369
     12 C           0.8728    1.2289   29.7682 C.ar    1  UNL1        0.1387
     13 C          -0.4922    0.8467   29.2774 C.ar    1  UNL1        0.0369
     14 C          -0.7790    0.8180   27.8054 C.ar    1  UNL1        0.0031
     15 C           0.2990    1.1716   26.8241 C.ar    1  UNL1        0.0002
     16 C           0.0121    1.1430   25.3521 C.ar    1  UNL1        0.0000
     17 O           1.1597    1.2576   31.2402 O.3     1  UNL1       -0.4714
     18 C           2.5231    0.8894   31.7459 C.3     1  UNL1        0.2525
     19 C           2.8790   -1.5231   20.2468 C.2     1  UNL1        0.0577
     20 C           1.9973   -0.4682   19.6468 C.2     1  UNL1        0.0048
     21 C           4.5636   -4.8531   18.8965 C.3     1  UNL1        0.1109
     22 N           3.8231   -3.8994   19.7865 N.am    1  UNL1       -0.2992
     23 C           3.6195   -2.4768   19.3568 C.2     1  UNL1        0.2460
     24 O           4.1564   -2.0079   18.0369 O.2     1  UNL1       -0.2701
     25 H           3.4708   -4.2072   20.6528 H       1  UNL1        0.1498
     26 O          -1.5386    3.2892   20.2628 O.3     1  UNL1       -0.4714
     27 C          -1.3343    3.8724   18.8960 C.3     1  UNL1        0.2525
@<TRIPOS>BOND
     1    21    22    1
     2    22    23   am
     3    23    24    2
     4    23    19    1
     5    19    20    2
     6    20     1    1
     7     1     2   ar
     8     2     3   ar
     9     3    26    1
    10    26    27    1
    11     3     4   ar
    12     4     5   ar
    13     5     7    1
    14     7     8   ar
    15     8     9   ar
    16     9    10   ar
    17    10    11   ar
    18    11    12   ar
    19    12    17    1
    20    17    18    1
    21    12    13   ar
    22    13    14   ar
    23    14    15   ar
    24    15    16   ar
    25     5     6   ar
    26     6     1   ar
    27    16     7   ar
    28    15    10   ar
    29    22    25    1
