@<TRIPOS>MOLECULE
*****
 23 27 0 0 0
SMALL
GASTEIGER

@<TRIPOS>ATOM
      1 O          -7.0473  -21.5256   19.3859 O.2     1  UNL1       -0.2258
      2 C          -6.3011  -20.5746   20.2739 C.2     1  UNL1        0.4086
      3 O          -4.8141  -20.5299   20.4659 O.3     1  UNL1       -0.4384
      4 C          -4.5049  -19.4289   21.4365 C.3     1  UNL1        0.1706
      5 C          -3.2941  -20.1606   20.9379 C.3     1  UNL1        0.1145
      6 N          -1.9287  -19.7648   21.4166 N.3     1  UNL1       -0.2697
      7 C          -1.7741  -18.6374   22.3938 C.3     1  UNL1        0.0723
      8 C          -2.9848  -17.9057   22.8924 C.3     1  UNL1        0.0209
      9 C          -4.3502  -18.3015   22.4137 C.3     1  UNL1        0.0427
     10 C          -3.8677  -19.2442   21.6599 C.3     1  UNL1        0.0209
     11 C          -3.2219  -19.6344   21.3940 C.3     1  UNL1        0.0723
     12 C          -5.8008  -18.7931   21.8445 C.3     1  UNL1        0.1428
     13 N          -6.9109  -19.5012   21.1260 N.am    1  UNL1       -0.2214
     14 C          -8.3739  -19.1904   21.2396 C.ar    1  UNL1        0.0571
     15 C          -9.2156  -19.0805   20.0029 C.ar    1  UNL1        0.0155
     16 C         -10.6786  -18.7698   20.1166 C.ar    1  UNL1        0.0078
     17 C         -11.3000  -18.5688   21.4670 C.ar    1  UNL1        0.0304
     18 S         -12.7046  -18.2539   21.8888 S.2     1  UNL1       -0.0755
     19 C         -12.7311  -18.1691   23.3861 C.ar    1  UNL1        0.0870
     20 CL        -13.9344  -17.8737   24.2313 Cl      1  UNL1       -0.0752
     21 C         -11.3428  -18.4316   23.8898 C.ar    1  UNL1        0.0185
     22 C         -10.4583  -18.6787   22.7036 C.ar    1  UNL1        0.0086
     23 C          -8.9953  -18.9895   22.5900 C.ar    1  UNL1        0.0155
@<TRIPOS>BOND
     1     1     2    2
     2     2     3    1
     3     3     4    1
     4     4     5    1
     5     5     6    1
     6     6     7    1
     7     7     8    1
     8     8     9    1
     9     9    10    1
    10    10    11    1
    11     4    12    1
    12    12    13    1
    13    13    14    1
    14    14    15   ar
    15    15    16   ar
    16    16    17   ar
    17    17    18   ar
    18    18    19   ar
    19    19    20    1
    20    19    21   ar
    21    21    22   ar
    22    22    23   ar
    23    13     2   am
    24    23    14   ar
    25     9     4    1
    26    22    17   ar
    27    11     6    1
@<TRIPOS>MOLECULE
*****
 23 27 0 0 0
SMALL
GASTEIGER

@<TRIPOS>ATOM
      1 O          -6.4912  -15.3358   24.5297 O.2     1  UNL1       -0.2258
      2 C          -6.0814  -16.4934   23.6683 C.2     1  UNL1        0.4086
      3 O          -4.6770  -16.9671   23.4378 O.3     1  UNL1       -0.4384
      4 C          -4.7316  -18.1470   22.5132 C.3     1  UNL1        0.1706
      5 C          -3.3441  -17.7720   22.9422 C.3     1  UNL1        0.1145
      6 N          -2.1672  -18.5583   22.4457 N.3     1  UNL1       -0.2697
      7 C          -2.3778  -19.7197   21.5202 C.3     1  UNL1        0.0723
      8 C          -3.7653  -20.0948   21.0911 C.3     1  UNL1        0.0209
      9 C          -4.9422  -19.3084   21.5876 C.3     1  UNL1        0.0427
     10 C          -4.1824  -18.5140   22.2815 C.3     1  UNL1        0.0209
     11 C          -3.4424  -18.3140   22.5103 C.3     1  UNL1        0.0723
     12 C          -6.1699  -18.4024   22.1722 C.3     1  UNL1        0.1428
     13 N          -7.0041  -17.3805   22.8861 N.am    1  UNL1       -0.2214
     14 C          -8.4985  -17.2657   22.8281 C.ar    1  UNL1        0.0571
     15 C          -9.1425  -16.3562   21.8240 C.ar    1  UNL1        0.0155
     16 C         -10.6369  -16.2415   21.7660 C.ar    1  UNL1        0.0078
     17 C         -11.4874  -17.0363   22.7120 C.ar    1  UNL1        0.0304
     18 S         -12.9741  -17.1287   22.8893 S.2     1  UNL1       -0.0755
     19 C         -13.2490  -18.0954   24.0029 C.ar    1  UNL1        0.0870
     20 CL        -14.6028  -18.4880   24.5155 Cl      1  UNL1       -0.0752
     21 C         -11.9322  -18.6004   24.5138 C.ar    1  UNL1        0.0185
     22 C         -10.8435  -17.9458   23.7159 C.ar    1  UNL1        0.0086
     23 C          -9.3491  -18.0606   23.7740 C.ar    1  UNL1        0.0155
@<TRIPOS>BOND
     1     1     2    2
     2     2     3    1
     3     3     4    1
     4     4     5    1
     5     5     6    1
     6     6     7    1
     7     7     8    1
     8     8     9    1
     9     9    10    1
    10    10    11    1
    11     4    12    1
    12    12    13    1
    13    13    14    1
    14    14    15   ar
    15    15    16   ar
    16    16    17   ar
    17    17    18   ar
    18    18    19   ar
    19    19    20    1
    20    19    21   ar
    21    21    22   ar
    22    22    23   ar
    23    13     2   am
    24    23    14   ar
    25     9     4    1
    26    22    17   ar
    27    11     6    1
@<TRIPOS>MOLECULE
*****
 23 27 0 0 0
SMALL
GASTEIGER

@<TRIPOS>ATOM
      1 O         -10.3648  -17.4689   19.4233 O.2     1  UNL1       -0.2258
      2 C         -10.6257  -17.8860   20.8403 C.2     1  UNL1        0.4086
      3 O         -11.9254  -17.7451   21.5758 O.3     1  UNL1       -0.4384
      4 C         -11.7357  -18.2892   22.9607 C.3     1  UNL1        0.1706
      5 C         -13.1177  -17.7711   22.6928 C.3     1  UNL1        0.1145
      6 N         -14.1616  -17.8281   23.7684 N.3     1  UNL1       -0.2697
      7 C         -13.8237  -18.4032   25.1118 C.3     1  UNL1        0.0723
      8 C         -12.4418  -18.9213   25.3797 C.3     1  UNL1        0.0209
      9 C         -11.3978  -18.8643   24.3041 C.3     1  UNL1        0.0427
     10 C         -12.2229  -18.3158   23.4626 C.3     1  UNL1        0.0209
     11 C         -12.9599  -18.0395   23.3197 C.3     1  UNL1        0.0723
     12 C         -10.3188  -18.7664   23.0811 C.3     1  UNL1        0.1428
     13 N          -9.6327  -18.5172   21.7706 N.am    1  UNL1       -0.2214
     14 C          -8.2045  -18.8421   21.4473 C.ar    1  UNL1        0.0571
     15 C          -7.8790  -19.6769   20.2443 C.ar    1  UNL1        0.0155
     16 C          -6.4508  -20.0018   19.9211 C.ar    1  UNL1        0.0078
     17 C          -5.3480  -19.4919   20.8008 C.ar    1  UNL1        0.0304
     18 S          -3.8576  -19.6483   20.7347 S.2     1  UNL1       -0.0755
     19 C          -3.2620  -18.9102   21.8967 C.ar    1  UNL1        0.0870
     20 CL         -1.8008  -18.8034   22.2180 Cl      1  UNL1       -0.0752
     21 C          -4.3842  -18.2976   22.6811 C.ar    1  UNL1        0.0185
     22 C          -5.6735  -18.6572   22.0038 C.ar    1  UNL1        0.0086
     23 C          -7.1017  -18.3322   22.3271 C.ar    1  UNL1        0.0155
@<TRIPOS>BOND
     1     1     2    2
     2     2     3    1
     3     3     4    1
     4     4     5    1
     5     5     6    1
     6     6     7    1
     7     7     8    1
     8     8     9    1
     9     9    10    1
    10    10    11    1
    11     4    12    1
    12    12    13    1
    13    13    14    1
    14    14    15   ar
    15    15    16   ar
    16    16    17   ar
    17    17    18   ar
    18    18    19   ar
    19    19    20    1
    20    19    21   ar
    21    21    22   ar
    22    22    23   ar
    23    13     2   am
    24    23    14   ar
    25     9     4    1
    26    22    17   ar
    27    11     6    1
@<TRIPOS>MOLECULE
*****
 23 27 0 0 0
SMALL
GASTEIGER

@<TRIPOS>ATOM
      1 O          -8.2096  -20.5404   18.8813 O.2     1  UNL1       -0.2258
      2 C          -8.7055  -19.5380   19.8809 C.2     1  UNL1        0.4086
      3 O         -10.1276  -19.0926   20.0519 O.3     1  UNL1       -0.4384
      4 C         -10.1674  -18.0844   21.1618 C.3     1  UNL1        0.1706
      5 C         -11.5054  -18.3659   20.5451 C.3     1  UNL1        0.1145
      6 N         -12.7280  -17.6594   21.0511 N.3     1  UNL1       -0.2697
      7 C         -12.6126  -16.6714   22.1738 C.3     1  UNL1        0.0723
      8 C         -11.2746  -16.3899   22.7905 C.3     1  UNL1        0.0209
      9 C         -10.0520  -17.0964   22.2845 C.3     1  UNL1        0.0427
     10 C         -10.7379  -17.7547   21.3979 C.3     1  UNL1        0.0209
     11 C         -11.4516  -17.9048   21.0690 C.3     1  UNL1        0.0723
     12 C          -8.7698  -17.9067   21.6768 C.3     1  UNL1        0.1428
     13 N          -7.8663  -18.8051   20.8852 N.am    1  UNL1       -0.2214
     14 C          -6.3840  -18.9459   21.0662 C.ar    1  UNL1        0.0571
     15 C          -5.8360  -19.5479   22.3261 C.ar    1  UNL1        0.0155
     16 C          -4.3536  -19.6886   22.5070 C.ar    1  UNL1        0.0078
     17 C          -3.4193  -19.2273   21.4281 C.ar    1  UNL1        0.0304
     18 S          -1.9228  -19.2373   21.3243 S.2     1  UNL1       -0.0755
     19 C          -1.5460  -18.6415   20.0003 C.ar    1  UNL1        0.0870
     20 CL         -0.1507  -18.4564   19.4819 Cl      1  UNL1       -0.0752
     21 C          -2.8094  -18.2632   19.2858 C.ar    1  UNL1        0.0185
     22 C          -3.9672  -18.6253   20.1683 C.ar    1  UNL1        0.0086
     23 C          -5.4496  -18.4846   19.9873 C.ar    1  UNL1        0.0155
@<TRIPOS>BOND
     1     1     2    2
     2     2     3    1
     3     3     4    1
     4     4     5    1
     5     5     6    1
     6     6     7    1
     7     7     8    1
     8     8     9    1
     9     9    10    1
    10    10    11    1
    11     4    12    1
    12    12    13    1
    13    13    14    1
    14    14    15   ar
    15    15    16   ar
    16    16    17   ar
    17    17    18   ar
    18    18    19   ar
    19    19    20    1
    20    19    21   ar
    21    21    22   ar
    22    22    23   ar
    23    13     2   am
    24    23    14   ar
    25     9     4    1
    26    22    17   ar
    27    11     6    1
@<TRIPOS>MOLECULE
*****
 23 27 0 0 0
SMALL
GASTEIGER

@<TRIPOS>ATOM
      1 O          -8.7972  -15.0190   20.9962 O.2     1  UNL1       -0.2258
      2 C          -9.4454  -16.0072   21.9199 C.2     1  UNL1        0.4086
      3 O         -10.9185  -16.1519   22.1629 O.3     1  UNL1       -0.4384
      4 C         -11.1180  -17.2583   23.1560 C.3     1  UNL1        0.1706
      5 C         -12.3927  -16.6190   22.6907 C.3     1  UNL1        0.1145
      6 N         -13.7106  -17.1016   23.2201 N.3     1  UNL1       -0.2697
      7 C         -13.7538  -18.2235   24.2147 C.3     1  UNL1        0.0723
      8 C         -12.4792  -18.8629   24.6800 C.3     1  UNL1        0.0209
      9 C         -11.1613  -18.3803   24.1506 C.3     1  UNL1        0.0427
     10 C         -11.7330  -17.4835   23.4030 C.3     1  UNL1        0.0209
     11 C         -12.4129  -17.1426   23.1549 C.3     1  UNL1        0.0723
     12 C          -9.7682  -17.7973   23.5267 C.3     1  UNL1        0.1428
     13 N          -8.7345  -17.0241   22.7628 N.am    1  UNL1       -0.2214
     14 C          -7.2504  -17.2314   22.8300 C.ar    1  UNL1        0.0571
     15 C          -6.4088  -16.3499   23.7045 C.ar    1  UNL1        0.0155
     16 C          -4.9248  -16.5572   23.7716 C.ar    1  UNL1        0.0078
     17 C          -4.2823  -17.6460   22.9643 C.ar    1  UNL1        0.0304
     18 S          -2.8545  -18.0853   22.8281 S.2     1  UNL1       -0.0755
     19 C          -2.8137  -19.2383   21.8695 C.ar    1  UNL1        0.0870
     20 CL         -1.5860  -19.9865   21.4422 Cl      1  UNL1       -0.0752
     21 C          -4.2162  -19.5115   21.4132 C.ar    1  UNL1        0.0185
     22 C          -5.1238  -18.5274   22.0899 C.ar    1  UNL1        0.0086
     23 C          -6.6079  -18.3201   22.0227 C.ar    1  UNL1        0.0155
@<TRIPOS>BOND
     1     1     2    2
     2     2     3    1
     3     3     4    1
     4     4     5    1
     5     5     6    1
     6     6     7    1
     7     7     8    1
     8     8     9    1
     9     9    10    1
    10    10    11    1
    11     4    12    1
    12    12    13    1
    13    13    14    1
    14    14    15   ar
    15    15    16   ar
    16    16    17   ar
    17    17    18   ar
    18    18    19   ar
    19    19    20    1
    20    19    21   ar
    21    21    22   ar
    22    22    23   ar
    23    13     2   am
    24    23    14   ar
    25     9     4    1
    26    22    17   ar
    27    11     6    1
@<TRIPOS>MOLECULE
*****
 23 27 0 0 0
SMALL
GASTEIGER

@<TRIPOS>ATOM
      1 O          -5.3449  -20.6825   22.9123 O.2     1  UNL1       -0.2258
      2 C          -4.7840  -19.8854   21.7722 C.2     1  UNL1        0.4086
      3 O          -3.3294  -19.7085   21.4515 O.3     1  UNL1       -0.4384
      4 C          -3.2257  -18.8389   20.2336 C.3     1  UNL1        0.1706
      5 C          -1.9014  -19.2807   20.7824 C.3     1  UNL1        0.1145
      6 N          -0.6304  -18.8477   20.1139 N.3     1  UNL1       -0.2697
      7 C          -0.6835  -17.9729   18.8966 C.3     1  UNL1        0.0723
      8 C          -2.0078  -17.5311   18.3478 C.3     1  UNL1        0.0209
      9 C          -3.2788  -17.9641   19.0163 C.3     1  UNL1        0.0427
     10 C          -2.6325  -18.6369   19.9217 C.3     1  UNL1        0.0209
     11 C          -1.9262  -18.8725   20.2143 C.3     1  UNL1        0.0723
     12 C          -4.6162  -18.4785   19.8016 C.3     1  UNL1        0.1428
     13 N          -5.5793  -19.1252   20.7525 N.am    1  UNL1       -0.2214
     14 C          -7.0750  -19.0287   20.6940 C.ar    1  UNL1        0.0571
     15 C          -7.8142  -19.5530   19.4987 C.ar    1  UNL1        0.0155
     16 C          -9.3099  -19.4565   19.4402 C.ar    1  UNL1        0.0078
     17 C         -10.0664  -18.8357   20.5769 C.ar    1  UNL1        0.0304
     18 S         -11.5317  -18.6038   20.7997 S.2     1  UNL1       -0.0755
     19 C         -11.6980  -17.9362   22.1326 C.ar    1  UNL1        0.0870
     20 CL        -12.9983  -17.5220   22.7550 Cl      1  UNL1       -0.0752
     21 C         -10.3356  -17.7555   22.7336 C.ar    1  UNL1        0.0185
     22 C          -9.3273  -18.3114   21.7722 C.ar    1  UNL1        0.0086
     23 C          -7.8316  -18.4079   21.8307 C.ar    1  UNL1        0.0155
@<TRIPOS>BOND
     1     1     2    2
     2     2     3    1
     3     3     4    1
     4     4     5    1
     5     5     6    1
     6     6     7    1
     7     7     8    1
     8     8     9    1
     9     9    10    1
    10    10    11    1
    11     4    12    1
    12    12    13    1
    13    13    14    1
    14    14    15   ar
    15    15    16   ar
    16    16    17   ar
    17    17    18   ar
    18    18    19   ar
    19    19    20    1
    20    19    21   ar
    21    21    22   ar
    22    22    23   ar
    23    13     2   am
    24    23    14   ar
    25     9     4    1
    26    22    17   ar
    27    11     6    1
@<TRIPOS>MOLECULE
*****
 23 27 0 0 0
SMALL
GASTEIGER

@<TRIPOS>ATOM
      1 O          -5.1583  -16.5719   24.4487 O.2     1  UNL1       -0.2258
      2 C          -4.7018  -17.2173   23.1739 C.2     1  UNL1        0.4086
      3 O          -3.3300  -17.1147   22.5758 O.3     1  UNL1       -0.4384
      4 C          -3.3173  -17.9125   21.3056 C.3     1  UNL1        0.1706
      5 C          -2.0086  -17.2527   21.6248 C.3     1  UNL1        0.1145
      6 N          -0.8375  -17.4247   20.7033 N.3     1  UNL1       -0.2697
      7 C          -0.9752  -18.2565   19.4627 C.3     1  UNL1        0.0723
      8 C          -2.2839  -18.9163   19.1436 C.3     1  UNL1        0.0209
      9 C          -3.4549  -18.7443   20.0651 C.3     1  UNL1        0.0427
     10 C          -2.7708  -17.9928   20.8756 C.3     1  UNL1        0.0209
     11 C          -2.0728  -17.6409   21.0458 C.3     1  UNL1        0.0723
     12 C          -4.6812  -18.5082   21.1188 C.3     1  UNL1        0.1428
     13 N          -5.5369  -18.0785   22.2734 N.am    1  UNL1       -0.2214
     14 C          -6.9751  -18.4456   22.4895 C.ar    1  UNL1        0.0571
     15 C          -7.3780  -19.8886   22.5629 C.ar    1  UNL1        0.0155
     16 C          -8.8162  -20.2557   22.7790 C.ar    1  UNL1        0.0078
     17 C          -9.8515  -19.1797   22.9218 C.ar    1  UNL1        0.0304
     18 S         -11.3343  -19.2364   23.1415 S.2     1  UNL1       -0.0755
     19 C         -11.8479  -17.8284   23.2039 C.ar    1  UNL1        0.0870
     20 CL        -13.2759  -17.4192   23.4111 Cl      1  UNL1       -0.0752
     21 C         -10.6825  -16.9016   23.0228 C.ar    1  UNL1        0.0185
     22 C          -9.4487  -17.7368   22.8484 C.ar    1  UNL1        0.0086
     23 C          -8.0105  -17.3697   22.6323 C.ar    1  UNL1        0.0155
@<TRIPOS>BOND
     1     1     2    2
     2     2     3    1
     3     3     4    1
     4     4     5    1
     5     5     6    1
     6     6     7    1
     7     7     8    1
     8     8     9    1
     9     9    10    1
    10    10    11    1
    11     4    12    1
    12    12    13    1
    13    13    14    1
    14    14    15   ar
    15    15    16   ar
    16    16    17   ar
    17    17    18   ar
    18    18    19   ar
    19    19    20    1
    20    19    21   ar
    21    21    22   ar
    22    22    23   ar
    23    13     2   am
    24    23    14   ar
    25     9     4    1
    26    22    17   ar
    27    11     6    1
@<TRIPOS>MOLECULE
*****
 23 27 0 0 0
SMALL
GASTEIGER

@<TRIPOS>ATOM
      1 O          -5.7549  -21.0298   20.7830 O.2     1  UNL1       -0.2258
      2 C          -4.7977  -19.8839   20.9264 C.2     1  UNL1        0.4086
      3 O          -3.3839  -19.8483   20.4264 O.3     1  UNL1       -0.4384
      4 C          -2.7985  -18.5148   20.7859 C.3     1  UNL1        0.1706
      5 C          -1.8523  -19.4188   20.0527 C.3     1  UNL1        0.1145
      6 N          -0.4595  -18.9552   19.7442 N.3     1  UNL1       -0.2697
      7 C          -0.0129  -17.5877   20.1689 C.3     1  UNL1        0.0723
      8 C          -0.9590  -16.6838   20.9021 C.3     1  UNL1        0.0209
      9 C          -2.3518  -17.1474   21.2106 C.3     1  UNL1        0.0427
     10 C          -2.1485  -18.2985   20.6420 C.3     1  UNL1        0.0209
     11 C          -1.6439  -18.7806   20.2509 C.3     1  UNL1        0.0723
     12 C          -3.8505  -17.7264   21.5081 C.3     1  UNL1        0.1428
     13 N          -5.0861  -18.5725   21.5950 N.am    1  UNL1       -0.2214
     14 C          -6.3824  -18.1767   22.2375 C.ar    1  UNL1        0.0571
     15 C          -6.4267  -17.0116   23.1813 C.ar    1  UNL1        0.0155
     16 C          -7.7230  -16.6158   23.8238 C.ar    1  UNL1        0.0078
     17 C          -8.9750  -17.3851   23.5226 C.ar    1  UNL1        0.0304
     18 S         -10.3880  -17.2301   24.0016 S.2     1  UNL1       -0.0755
     19 C         -11.2170  -18.2994   23.3540 C.ar    1  UNL1        0.0870
     20 CL        -12.6882  -18.5150   23.5511 Cl      1  UNL1       -0.0752
     21 C         -10.3163  -19.1152   22.4747 C.ar    1  UNL1        0.0185
     22 C          -8.9307  -18.5501   22.5789 C.ar    1  UNL1        0.0086
     23 C          -7.6344  -18.9459   21.9363 C.ar    1  UNL1        0.0155
@<TRIPOS>BOND
     1     1     2    2
     2     2     3    1
     3     3     4    1
     4     4     5    1
     5     5     6    1
     6     6     7    1
     7     7     8    1
     8     8     9    1
     9     9    10    1
    10    10    11    1
    11     4    12    1
    12    12    13    1
    13    13    14    1
    14    14    15   ar
    15    15    16   ar
    16    16    17   ar
    17    17    18   ar
    18    18    19   ar
    19    19    20    1
    20    19    21   ar
    21    21    22   ar
    22    22    23   ar
    23    13     2   am
    24    23    14   ar
    25     9     4    1
    26    22    17   ar
    27    11     6    1
@<TRIPOS>MOLECULE
*****
 23 27 0 0 0
SMALL
GASTEIGER

@<TRIPOS>ATOM
      1 O         -12.0375   -8.0341   16.7461 O.2     1  UNL1       -0.2258
      2 C         -13.3009   -7.9916   17.5535 C.2     1  UNL1        0.4086
      3 O         -14.2706   -9.1217   17.7337 O.3     1  UNL1       -0.4384
      4 C         -15.3855   -8.6401   18.6141 C.3     1  UNL1        0.1706
      5 C         -15.5326  -10.0645   18.1677 C.3     1  UNL1        0.1145
      6 N         -16.7197  -10.8694   18.6070 N.3     1  UNL1       -0.2697
      7 C         -17.7597  -10.2498   19.4927 C.3     1  UNL1        0.0723
      8 C         -17.6126   -8.8254   19.9391 C.3     1  UNL1        0.0209
      9 C         -16.4255   -8.0205   19.4998 C.3     1  UNL1        0.0427
     10 C         -15.9395   -9.0157   18.8191 C.3     1  UNL1        0.0209
     11 C         -16.0179   -9.7754   18.5810 C.3     1  UNL1        0.0723
     12 C         -15.1048   -7.2123   18.9781 C.3     1  UNL1        0.1428
     13 N         -13.8164   -6.8115   18.3226 N.am    1  UNL1       -0.2214
     14 C         -13.1591   -5.4666   18.4193 C.ar    1  UNL1        0.0571
     15 C         -11.7374   -5.3585   18.8853 C.ar    1  UNL1        0.0155
     16 C         -11.0802   -4.0137   18.9820 C.ar    1  UNL1        0.0078
     17 C         -11.8445   -2.7770   18.6126 C.ar    1  UNL1        0.0304
     18 S         -11.4640   -1.3260   18.6069 S.2     1  UNL1       -0.0755
     19 C         -12.6504   -0.5375   18.1373 C.ar    1  UNL1        0.0870
     20 CL        -12.7122    0.9529   17.9799 Cl      1  UNL1       -0.0752
     21 C         -13.7642   -1.5010   17.8528 C.ar    1  UNL1        0.0185
     22 C         -13.2661   -2.8852   18.1466 C.ar    1  UNL1        0.0086
     23 C         -13.9234   -4.2300   18.0499 C.ar    1  UNL1        0.0155
@<TRIPOS>BOND
     1     1     2    2
     2     2     3    1
     3     3     4    1
     4     4     5    1
     5     5     6    1
     6     6     7    1
     7     7     8    1
     8     8     9    1
     9     9    10    1
    10    10    11    1
    11     4    12    1
    12    12    13    1
    13    13    14    1
    14    14    15   ar
    15    15    16   ar
    16    16    17   ar
    17    17    18   ar
    18    18    19   ar
    19    19    20    1
    20    19    21   ar
    21    21    22   ar
    22    22    23   ar
    23    13     2   am
    24    23    14   ar
    25     9     4    1
    26    22    17   ar
    27    11     6    1
