@<TRIPOS>MOLECULE
*****
 32 36 0 0 0
SMALL
GASTEIGER

@<TRIPOS>ATOM
      1 C          -7.0942  -19.6714   21.4813 C.3     1  UNL1        0.0749
      2 C          -6.4053  -18.6254   22.3068 C.3     1  UNL1        0.0444
      3 C          -4.9112  -18.5005   22.2644 C.ar    1  UNL1       -0.0101
      4 C          -4.1058  -19.4215   21.3965 C.ar    1  UNL1       -0.0091
      5 C          -2.6117  -19.2966   21.3541 C.ar    1  UNL1       -0.0032
      6 C          -1.9228  -18.2506   22.1796 C.ar    1  UNL1        0.0010
      7 C          -2.7281  -17.3295   23.0475 C.ar    1  UNL1        0.0142
      8 C          -4.2223  -17.4545   23.0898 C.ar    1  UNL1        0.0436
      9 C          -4.7947  -20.4675   20.5711 C.3     1  UNL1        0.0954
     10 N          -6.2889  -20.5925   20.6134 N.3     1  UNL1       -0.2934
     11 H          -6.4963  -21.5428   20.9205 H       1  UNL1        0.1236
     12 N          -5.0277  -16.5335   23.9577 N.pl3   1  UNL1       -0.3049
     13 C          -4.6726  -16.3657   25.4054 C.3     1  UNL1        0.1079
     14 C          -5.4779  -15.4447   26.2732 C.3     1  UNL1        0.0903
     15 N          -6.6383  -14.6915   25.6934 N.3     1  UNL1       -0.2946
     16 C          -6.9934  -14.8593   24.2457 C.3     1  UNL1        0.0903
     17 C          -6.1880  -15.7803   23.3779 C.3     1  UNL1        0.1079
     18 H          -6.4469  -13.6999   25.8365 H       1  UNL1        0.1233
     19 C          -8.5884  -19.7964   21.5237 C.3     1  UNL1        0.0886
     20 N          -9.4137  -19.3250   20.3631 N.3     1  UNL1       -0.2667
     21 C          -9.1681  -19.8829   18.9925 C.3     1  UNL1        0.0899
     22 C         -13.8789  -18.4643   25.5178 C.3     1  UNL1        0.0326
     23 C         -13.0303  -18.4221   24.2817 C.ar    1  UNL1       -0.0030
     24 C         -11.9595  -19.4513   24.0716 C.ar    1  UNL1        0.0942
     25 N         -11.1109  -19.4092   22.8354 N.ar    1  UNL1       -0.2475
     26 C         -11.3330  -18.3379   21.8093 C.ar    1  UNL1        0.0694
     27 C         -12.4038  -17.3087   22.0194 C.ar    1  UNL1       -0.0076
     28 C         -13.2524  -17.3508   23.2556 C.ar    1  UNL1       -0.0058
     29 C         -12.6260  -16.2374   20.9933 C.3     1  UNL1        0.0276
     30 C         -11.7774  -16.1953   19.7571 C.3     1  UNL1        0.0065
     31 C         -10.7066  -17.2245   19.5471 C.3     1  UNL1        0.0224
     32 C         -10.4844  -18.2958   20.5732 C.3     1  UNL1        0.0978
@<TRIPOS>BOND
     1    22    23    1
     2    23    24   ar
     3    24    25   ar
     4    25    26   ar
     5    26    27   ar
     6    27    28   ar
     7    27    29    1
     8    29    30    1
     9    30    31    1
    10    31    32    1
    11    32    20    1
    12    20    21    1
    13    20    19    1
    14     1    19    1
    15     1     2    1
    16     2     3    1
    17     3     4   ar
    18     4     5   ar
    19     5     6   ar
    20     6     7   ar
    21     7     8   ar
    22     8    12    1
    23    12    13    1
    24    13    14    1
    25    14    15    1
    26    15    16    1
    27    16    17    1
    28     4     9    1
    29     9    10    1
    30    28    23   ar
    31    10     1    1
    32    32    26    1
    33     8     3   ar
    34    17    12    1
    35    15    18    1
    36    10    11    1
@<TRIPOS>MOLECULE
*****
 32 36 0 0 0
SMALL
GASTEIGER

@<TRIPOS>ATOM
      1 C          -8.2221  -19.0477   20.1082 C.3     1  UNL1        0.0749
      2 C          -8.4799  -18.1220   21.2600 C.3     1  UNL1        0.0444
      3 C          -9.8846  -17.8775   21.7259 C.ar    1  UNL1       -0.0101
      4 C         -11.0315  -18.5588   21.0400 C.ar    1  UNL1       -0.0091
      5 C         -12.4362  -18.3143   21.5059 C.ar    1  UNL1       -0.0032
      6 C         -12.6940  -17.3886   22.6577 C.ar    1  UNL1        0.0010
      7 C         -11.5471  -16.7073   23.3436 C.ar    1  UNL1        0.0142
      8 C         -10.1424  -16.9518   22.8777 C.ar    1  UNL1        0.0436
      9 C         -10.7738  -19.4845   19.8882 C.3     1  UNL1        0.0954
     10 N          -9.3691  -19.7289   19.4223 N.3     1  UNL1       -0.2934
     11 H          -9.3319  -19.4522   18.4413 H       1  UNL1        0.1236
     12 N          -8.9954  -16.2706   23.5636 N.pl3   1  UNL1       -0.3049
     13 C          -8.8513  -16.3623   25.0538 C.3     1  UNL1        0.1079
     14 C          -7.7043  -15.6811   25.7397 C.3     1  UNL1        0.0903
     15 N          -6.7016  -14.9081   24.9353 N.3     1  UNL1       -0.2946
     16 C          -6.8458  -14.8163   23.4451 C.3     1  UNL1        0.0903
     17 C          -7.9927  -15.4976   22.7592 C.3     1  UNL1        0.1079
     18 H          -5.7905  -15.3289   25.1177 H       1  UNL1        0.1233
     19 C          -6.8174  -19.2921   19.6423 C.3     1  UNL1        0.0886
     20 N          -5.8118  -19.8967   20.5768 N.3     1  UNL1       -0.2667
     21 C          -5.6377  -21.3857   20.6300 C.3     1  UNL1        0.0899
     22 C           0.5028  -17.3266   19.6994 C.3     1  UNL1        0.0326
     23 C          -0.8680  -17.7481   20.1391 C.ar    1  UNL1       -0.0030
     24 C          -1.6994  -18.6324   19.2578 C.ar    1  UNL1        0.0942
     25 N          -3.0702  -19.0538   19.6975 N.ar    1  UNL1       -0.2475
     26 C          -3.6096  -18.5910   21.0184 C.ar    1  UNL1        0.0694
     27 C          -2.7781  -17.7067   21.8997 C.ar    1  UNL1       -0.0076
     28 C          -1.4073  -17.2853   21.4600 C.ar    1  UNL1       -0.0058
     29 C          -3.3174  -17.2438   23.2207 C.3     1  UNL1        0.0276
     30 C          -4.6882  -17.6653   23.6603 C.3     1  UNL1        0.0065
     31 C          -5.5197  -18.5496   22.7790 C.3     1  UNL1        0.0224
     32 C          -4.9803  -19.0125   21.4581 C.3     1  UNL1        0.0978
@<TRIPOS>BOND
     1    22    23    1
     2    23    24   ar
     3    24    25   ar
     4    25    26   ar
     5    26    27   ar
     6    27    28   ar
     7    27    29    1
     8    29    30    1
     9    30    31    1
    10    31    32    1
    11    32    20    1
    12    20    21    1
    13    20    19    1
    14     1    19    1
    15     1     2    1
    16     2     3    1
    17     3     4   ar
    18     4     5   ar
    19     5     6   ar
    20     6     7   ar
    21     7     8   ar
    22     8    12    1
    23    12    13    1
    24    13    14    1
    25    14    15    1
    26    15    16    1
    27    16    17    1
    28     4     9    1
    29     9    10    1
    30    28    23   ar
    31    10     1    1
    32    32    26    1
    33     8     3   ar
    34    17    12    1
    35    15    18    1
    36    10    11    1
@<TRIPOS>MOLECULE
*****
 32 36 0 0 0
SMALL
GASTEIGER

@<TRIPOS>ATOM
      1 C          -6.2310  -16.6534   23.5002 C.3     1  UNL1        0.0749
      2 C          -6.6249  -17.6842   22.4841 C.3     1  UNL1        0.0444
      3 C          -5.5874  -18.5971   21.9010 C.ar    1  UNL1       -0.0101
      4 C          -4.1561  -18.4794   22.3339 C.ar    1  UNL1       -0.0091
      5 C          -3.1186  -19.3924   21.7508 C.ar    1  UNL1       -0.0032
      6 C          -3.5125  -20.4232   20.7346 C.ar    1  UNL1        0.0010
      7 C          -4.9438  -20.5409   20.3017 C.ar    1  UNL1        0.0142
      8 C          -5.9813  -19.6279   20.8849 C.ar    1  UNL1        0.0436
      9 C          -3.7622  -17.4487   23.3500 C.3     1  UNL1        0.0954
     10 N          -4.7997  -16.5357   23.9332 N.3     1  UNL1       -0.2934
     11 H          -4.5055  -15.5823   23.7214 H       1  UNL1        0.1236
     12 N          -7.4126  -19.7456   20.4519 N.pl3   1  UNL1       -0.3049
     13 C          -7.7608  -19.7043   18.9934 C.3     1  UNL1        0.1079
     14 C          -9.1921  -19.8221   18.5605 C.3     1  UNL1        0.0903
     15 N         -10.2752  -19.9810   19.5860 N.3     1  UNL1       -0.2946
     16 C          -9.9270  -20.0223   21.0444 C.3     1  UNL1        0.0903
     17 C          -8.4957  -19.9045   21.4774 C.3     1  UNL1        0.1079
     18 H         -10.7562  -20.8550   19.3733 H       1  UNL1        0.1233
     19 C          -7.2685  -15.7404   24.0833 C.3     1  UNL1        0.0886
     20 N          -8.2691  -16.2728   25.0660 N.3     1  UNL1       -0.2667
     21 C          -8.1099  -15.9841   26.5293 C.3     1  UNL1        0.0899
     22 C         -12.0454  -15.8082   19.3412 C.3     1  UNL1        0.0326
     23 C         -11.3912  -16.1296   20.6522 C.ar    1  UNL1       -0.0030
     24 C         -10.2316  -15.3086   21.1329 C.ar    1  UNL1        0.0942
     25 N          -9.5774  -15.6300   22.4439 N.ar    1  UNL1       -0.2475
     26 C         -10.0829  -16.7724   23.2742 C.ar    1  UNL1        0.0694
     27 C         -11.2426  -17.5933   22.7935 C.ar    1  UNL1       -0.0076
     28 C         -11.8968  -17.2719   21.4825 C.ar    1  UNL1       -0.0058
     29 C         -11.7482  -18.7357   23.6239 C.3     1  UNL1        0.0276
     30 C         -11.0940  -19.0571   24.9349 C.3     1  UNL1        0.0065
     31 C          -9.9343  -18.2361   25.4156 C.3     1  UNL1        0.0224
     32 C          -9.4288  -17.0937   24.5853 C.3     1  UNL1        0.0978
@<TRIPOS>BOND
     1    22    23    1
     2    23    24   ar
     3    24    25   ar
     4    25    26   ar
     5    26    27   ar
     6    27    28   ar
     7    27    29    1
     8    29    30    1
     9    30    31    1
    10    31    32    1
    11    32    20    1
    12    20    21    1
    13    20    19    1
    14     1    19    1
    15     1     2    1
    16     2     3    1
    17     3     4   ar
    18     4     5   ar
    19     5     6   ar
    20     6     7   ar
    21     7     8   ar
    22     8    12    1
    23    12    13    1
    24    13    14    1
    25    14    15    1
    26    15    16    1
    27    16    17    1
    28     4     9    1
    29     9    10    1
    30    28    23   ar
    31    10     1    1
    32    32    26    1
    33     8     3   ar
    34    17    12    1
    35    15    18    1
    36    10    11    1
@<TRIPOS>MOLECULE
*****
 32 36 0 0 0
SMALL
GASTEIGER

@<TRIPOS>ATOM
      1 C           6.8612   -3.7825   25.6403 C.3     1  UNL1        0.0749
      2 C           7.3567   -4.4133   26.9078 C.3     1  UNL1        0.0444
      3 C           7.9907   -5.7723   26.8712 C.ar    1  UNL1       -0.0101
      4 C           8.1292   -6.5004   25.5672 C.ar    1  UNL1       -0.0091
      5 C           8.7632   -7.8593   25.5306 C.ar    1  UNL1       -0.0032
      6 C           9.2587   -8.4902   26.7982 C.ar    1  UNL1        0.0010
      7 C           9.1202   -7.7620   28.1022 C.ar    1  UNL1        0.0142
      8 C           8.4862   -6.4030   28.1388 C.ar    1  UNL1        0.0436
      9 C           7.6338   -5.8697   24.2997 C.3     1  UNL1        0.0954
     10 N           6.9997   -4.5107   24.3362 N.3     1  UNL1       -0.2934
     11 H           6.0592   -4.6142   23.9554 H       1  UNL1        0.1236
     12 N           8.3477   -5.6749   29.4428 N.pl3   1  UNL1       -0.3049
     13 C           7.0720   -5.7747   30.2258 C.3     1  UNL1        0.1079
     14 C           6.9335   -5.0466   31.5299 C.3     1  UNL1        0.0903
     15 N           8.0706   -4.2186   32.0510 N.3     1  UNL1       -0.2946
     16 C           9.3461   -4.1187   31.2680 C.3     1  UNL1        0.0903
     17 C           9.4847   -4.8469   29.9640 C.3     1  UNL1        0.1079
     18 H           8.3156   -4.5973   32.9658 H       1  UNL1        0.1233
     19 C           6.2273   -2.4236   25.6768 C.3     1  UNL1        0.0886
     20 N           6.3308   -1.5154   24.4875 N.3     1  UNL1       -0.2667
     21 C           7.6233   -0.8151   24.1889 C.3     1  UNL1        0.0899
     22 C           4.5613   -4.5282   18.5679 C.3     1  UNL1        0.0326
     23 C           4.7065   -3.7230   19.8251 C.ar    1  UNL1       -0.0030
     24 C           5.8953   -3.9309   20.7158 C.ar    1  UNL1        0.0942
     25 N           6.0405   -3.1257   21.9730 N.ar    1  UNL1       -0.2475
     26 C           4.9968   -2.1127   22.3396 C.ar    1  UNL1        0.0694
     27 C           3.8080   -1.9048   21.4489 C.ar    1  UNL1       -0.0076
     28 C           3.6628   -2.7100   20.1916 C.ar    1  UNL1       -0.0058
     29 C           2.7642   -0.8917   21.8154 C.3     1  UNL1        0.0276
     30 C           2.9094   -0.0865   23.0726 C.3     1  UNL1        0.0065
     31 C           4.0983   -0.2944   23.9633 C.3     1  UNL1        0.0224
     32 C           5.1420   -1.3075   23.5968 C.3     1  UNL1        0.0978
@<TRIPOS>BOND
     1    22    23    1
     2    23    24   ar
     3    24    25   ar
     4    25    26   ar
     5    26    27   ar
     6    27    28   ar
     7    27    29    1
     8    29    30    1
     9    30    31    1
    10    31    32    1
    11    32    20    1
    12    20    21    1
    13    20    19    1
    14     1    19    1
    15     1     2    1
    16     2     3    1
    17     3     4   ar
    18     4     5   ar
    19     5     6   ar
    20     6     7   ar
    21     7     8   ar
    22     8    12    1
    23    12    13    1
    24    13    14    1
    25    14    15    1
    26    15    16    1
    27    16    17    1
    28     4     9    1
    29     9    10    1
    30    28    23   ar
    31    10     1    1
    32    32    26    1
    33     8     3   ar
    34    17    12    1
    35    15    18    1
    36    10    11    1
@<TRIPOS>MOLECULE
*****
 32 36 0 0 0
SMALL
GASTEIGER

@<TRIPOS>ATOM
      1 C           4.2949   -1.8882   24.0553 C.3     1  UNL1        0.0749
      2 C           3.7075   -1.3812   22.7715 C.3     1  UNL1        0.0444
      3 C           3.9735   -2.1077   21.4865 C.ar    1  UNL1       -0.0101
      4 C           4.8270   -3.3412   21.4851 C.ar    1  UNL1       -0.0091
      5 C           5.0931   -4.0677   20.2001 C.ar    1  UNL1       -0.0032
      6 C           4.5057   -3.5606   18.9163 C.ar    1  UNL1        0.0010
      7 C           3.6522   -2.3271   18.9177 C.ar    1  UNL1        0.0142
      8 C           3.3861   -1.6006   20.2028 C.ar    1  UNL1        0.0436
      9 C           5.4144   -3.8482   22.7688 C.3     1  UNL1        0.0954
     10 N           5.1484   -3.1217   24.0539 N.3     1  UNL1       -0.2934
     11 H           6.0561   -2.8522   24.4331 H       1  UNL1        0.1236
     12 N           2.5327   -0.3671   20.2042 N.pl3   1  UNL1       -0.3049
     13 C           3.1625    0.9809   20.0134 C.3     1  UNL1        0.1079
     14 C           2.3090    2.2144   20.0148 C.3     1  UNL1        0.0903
     15 N           0.8257    2.1000   20.2070 N.3     1  UNL1       -0.2946
     16 C           0.1960    0.7520   20.3978 C.3     1  UNL1        0.0903
     17 C           1.0495   -0.4815   20.3964 C.3     1  UNL1        0.1079
     18 H           0.3893    2.5150   19.3838 H       1  UNL1        0.1233
     19 C           4.0288   -1.1617   25.3403 C.3     1  UNL1        0.0886
     20 N           3.7319    0.3086   25.3231 N.3     1  UNL1       -0.2667
     21 C           4.8355    1.2937   25.0749 C.3     1  UNL1        0.0899
     22 C           0.4890    2.1042   31.1118 C.3     1  UNL1        0.0326
     23 C           0.9496    1.7766   29.7224 C.ar    1  UNL1       -0.0030
     24 C           2.3501    1.2915   29.4914 C.ar    1  UNL1        0.0942
     25 N           2.8107    0.9639   28.1020 N.ar    1  UNL1       -0.2475
     26 C           1.8709    1.1213   26.9436 C.ar    1  UNL1        0.0694
     27 C           0.4704    1.6064   27.1746 C.ar    1  UNL1       -0.0076
     28 C           0.0098    1.9340   28.5640 C.ar    1  UNL1       -0.0058
     29 C          -0.4695    1.7638   26.0162 C.3     1  UNL1        0.0276
     30 C          -0.0089    1.4362   24.6268 C.3     1  UNL1        0.0065
     31 C           1.3917    0.9511   24.3958 C.3     1  UNL1        0.0224
     32 C           2.3315    0.7936   25.5542 C.3     1  UNL1        0.0978
@<TRIPOS>BOND
     1    22    23    1
     2    23    24   ar
     3    24    25   ar
     4    25    26   ar
     5    26    27   ar
     6    27    28   ar
     7    27    29    1
     8    29    30    1
     9    30    31    1
    10    31    32    1
    11    32    20    1
    12    20    21    1
    13    20    19    1
    14     1    19    1
    15     1     2    1
    16     2     3    1
    17     3     4   ar
    18     4     5   ar
    19     5     6   ar
    20     6     7   ar
    21     7     8   ar
    22     8    12    1
    23    12    13    1
    24    13    14    1
    25    14    15    1
    26    15    16    1
    27    16    17    1
    28     4     9    1
    29     9    10    1
    30    28    23   ar
    31    10     1    1
    32    32    26    1
    33     8     3   ar
    34    17    12    1
    35    15    18    1
    36    10    11    1
@<TRIPOS>MOLECULE
*****
 32 36 0 0 0
SMALL
GASTEIGER

@<TRIPOS>ATOM
      1 C           5.8874   -3.3540   24.3202 C.3     1  UNL1        0.0749
      2 C           5.3237   -2.8660   23.0186 C.3     1  UNL1        0.0444
      3 C           4.2843   -1.7845   23.0099 C.ar    1  UNL1       -0.0101
      4 C           3.8086   -1.1911   24.3028 C.ar    1  UNL1       -0.0091
      5 C           2.7692   -0.1097   24.2941 C.ar    1  UNL1       -0.0032
      6 C           2.2055    0.3784   22.9925 C.ar    1  UNL1        0.0010
      7 C           2.6812   -0.2150   21.6997 C.ar    1  UNL1        0.0142
      8 C           3.7206   -1.2965   21.7084 C.ar    1  UNL1        0.0436
      9 C           4.3723   -1.6791   25.6044 C.3     1  UNL1        0.0954
     10 N           5.4117   -2.7606   25.6131 N.3     1  UNL1       -0.2934
     11 H           5.0332   -3.5283   26.1678 H       1  UNL1        0.1236
     12 N           4.1964   -1.8900   20.4155 N.pl3   1  UNL1       -0.3049
     13 C           3.6129   -3.1813   19.9234 C.3     1  UNL1        0.1079
     14 C           4.0886   -3.7747   18.6305 C.3     1  UNL1        0.0903
     15 N           5.1478   -3.0769   17.8298 N.3     1  UNL1       -0.2946
     16 C           5.7312   -1.7856   18.3219 C.3     1  UNL1        0.0903
     17 C           5.2555   -1.1922   19.6148 C.3     1  UNL1        0.1079
     18 H           4.7459   -2.8874   16.9116 H       1  UNL1        0.1233
     19 C           6.9268   -4.4355   24.3289 C.3     1  UNL1        0.0886
     20 N           8.0738   -4.3656   25.2931 N.3     1  UNL1       -0.2667
     21 C           9.1033   -3.2832   25.1569 C.3     1  UNL1        0.0899
     22 C           6.5142   -3.9515   31.9749 C.3     1  UNL1        0.0326
     23 C           6.9335   -4.3082   30.5795 C.ar    1  UNL1       -0.0030
     24 C           6.8160   -3.2956   29.4792 C.ar    1  UNL1        0.0942
     25 N           7.2353   -3.6523   28.0838 N.ar    1  UNL1       -0.2475
     26 C           7.7720   -5.0215   27.7888 C.ar    1  UNL1        0.0694
     27 C           7.8895   -6.0341   28.8892 C.ar    1  UNL1       -0.0076
     28 C           7.4702   -5.6774   30.2846 C.ar    1  UNL1       -0.0058
     29 C           8.4262   -7.4034   28.5943 C.3     1  UNL1        0.0276
     30 C           8.8455   -7.7601   27.1989 C.3     1  UNL1        0.0065
     31 C           8.7280   -6.7474   26.0985 C.3     1  UNL1        0.0224
     32 C           8.1913   -5.3782   26.3935 C.3     1  UNL1        0.0978
@<TRIPOS>BOND
     1    22    23    1
     2    23    24   ar
     3    24    25   ar
     4    25    26   ar
     5    26    27   ar
     6    27    28   ar
     7    27    29    1
     8    29    30    1
     9    30    31    1
    10    31    32    1
    11    32    20    1
    12    20    21    1
    13    20    19    1
    14     1    19    1
    15     1     2    1
    16     2     3    1
    17     3     4   ar
    18     4     5   ar
    19     5     6   ar
    20     6     7   ar
    21     7     8   ar
    22     8    12    1
    23    12    13    1
    24    13    14    1
    25    14    15    1
    26    15    16    1
    27    16    17    1
    28     4     9    1
    29     9    10    1
    30    28    23   ar
    31    10     1    1
    32    32    26    1
    33     8     3   ar
    34    17    12    1
    35    15    18    1
    36    10    11    1
@<TRIPOS>MOLECULE
*****
 32 36 0 0 0
SMALL
GASTEIGER

@<TRIPOS>ATOM
      1 C           3.8585   -1.1518   24.2962 C.3     1  UNL1        0.0749
      2 C           4.4298   -1.9921   23.1926 C.3     1  UNL1        0.0444
      3 C           5.5937   -2.8981   23.4655 C.ar    1  UNL1       -0.0101
      4 C           6.1864   -2.9638   24.8419 C.ar    1  UNL1       -0.0091
      5 C           7.3503   -3.8698   25.1148 C.ar    1  UNL1       -0.0032
      6 C           7.9216   -4.7101   24.0113 C.ar    1  UNL1        0.0010
      7 C           7.3289   -4.6443   22.6349 C.ar    1  UNL1        0.0142
      8 C           6.1649   -3.7383   22.3620 C.ar    1  UNL1        0.0436
      9 C           5.6152   -2.1236   25.9454 C.3     1  UNL1        0.0954
     10 N           4.4512   -1.2176   25.6725 N.3     1  UNL1       -0.2934
     11 H           4.7523   -0.2721   25.9090 H       1  UNL1        0.1236
     12 N           5.5722   -3.6725   20.9857 N.pl3   1  UNL1       -0.3049
     13 C           6.3145   -2.9794   19.8817 C.3     1  UNL1        0.1079
     14 C           5.7218   -2.9136   18.5054 C.3     1  UNL1        0.0903
     15 N           4.3868   -3.5410   18.2329 N.3     1  UNL1       -0.2946
     16 C           3.6445   -4.2341   19.3368 C.3     1  UNL1        0.0903
     17 C           4.2372   -4.2998   20.7132 C.3     1  UNL1        0.1079
     18 H           4.5308   -4.2315   17.4961 H       1  UNL1        0.1233
     19 C           2.6946   -0.2458   24.0233 C.3     1  UNL1        0.0886
     20 N           2.8364    0.8840   23.0468 N.3     1  UNL1       -0.2667
     21 C           3.5428    2.1431   23.4541 C.3     1  UNL1        0.0899
     22 C           5.9537    0.4976   16.9326 C.3     1  UNL1        0.0326
     23 C           5.0333    0.5619   18.1153 C.ar    1  UNL1       -0.0030
     24 C           5.5978    0.6911   19.4989 C.ar    1  UNL1        0.0942
     25 N           4.6774    0.7554   20.6815 N.ar    1  UNL1       -0.2475
     26 C           3.1923    0.6905   20.4805 C.ar    1  UNL1        0.0694
     27 C           2.6278    0.5613   19.0969 C.ar    1  UNL1       -0.0076
     28 C           3.5482    0.4970   17.9142 C.ar    1  UNL1       -0.0058
     29 C           1.1427    0.4963   18.8958 C.3     1  UNL1        0.0276
     30 C           0.2222    0.5606   20.0784 C.3     1  UNL1        0.0065
     31 C           0.7869    0.6898   21.4621 C.3     1  UNL1        0.0224
     32 C           2.2719    0.7548   21.6632 C.3     1  UNL1        0.0978
@<TRIPOS>BOND
     1    22    23    1
     2    23    24   ar
     3    24    25   ar
     4    25    26   ar
     5    26    27   ar
     6    27    28   ar
     7    27    29    1
     8    29    30    1
     9    30    31    1
    10    31    32    1
    11    32    20    1
    12    20    21    1
    13    20    19    1
    14     1    19    1
    15     1     2    1
    16     2     3    1
    17     3     4   ar
    18     4     5   ar
    19     5     6   ar
    20     6     7   ar
    21     7     8   ar
    22     8    12    1
    23    12    13    1
    24    13    14    1
    25    14    15    1
    26    15    16    1
    27    16    17    1
    28     4     9    1
    29     9    10    1
    30    28    23   ar
    31    10     1    1
    32    32    26    1
    33     8     3   ar
    34    17    12    1
    35    15    18    1
    36    10    11    1
@<TRIPOS>MOLECULE
*****
 32 36 0 0 0
SMALL
GASTEIGER

@<TRIPOS>ATOM
      1 C           3.0342   -0.6149   24.0589 C.3     1  UNL1        0.0749
      2 C           3.2097   -0.8695   22.5911 C.3     1  UNL1        0.0444
      3 C           2.2985   -0.2069   21.6008 C.ar    1  UNL1       -0.0101
      4 C           1.2118    0.7102   22.0782 C.ar    1  UNL1       -0.0091
      5 C           0.3007    1.3727   21.0879 C.ar    1  UNL1       -0.0032
      6 C           0.4762    1.1182   19.6201 C.ar    1  UNL1        0.0010
      7 C           1.5629    0.2011   19.1426 C.ar    1  UNL1        0.0142
      8 C           2.4741   -0.4615   20.1330 C.ar    1  UNL1        0.0436
      9 C           1.0363    0.9648   23.5460 C.3     1  UNL1        0.0954
     10 N           1.9475    0.3022   24.5364 N.3     1  UNL1       -0.2934
     11 H           1.3551   -0.2438   25.1620 H       1  UNL1        0.1236
     12 N           3.5608   -1.3786   19.6556 N.pl3   1  UNL1       -0.3049
     13 C           3.2912   -2.8466   19.5056 C.3     1  UNL1        0.1079
     14 C           4.3780   -3.7637   19.0282 C.3     1  UNL1        0.0903
     15 N           5.7342   -3.2128   18.7007 N.3     1  UNL1       -0.2946
     16 C           6.0037   -1.7449   18.8507 C.3     1  UNL1        0.0903
     17 C           4.9170   -0.8278   19.3282 C.3     1  UNL1        0.1079
     18 H           5.9201   -3.4482   17.7258 H       1  UNL1        0.1233
     19 C           3.9453   -1.2775   25.0492 C.3     1  UNL1        0.0886
     20 N           5.4272   -1.2850   24.8167 N.3     1  UNL1       -0.2667
     21 C           6.2085   -0.0084   24.9162 C.3     1  UNL1        0.0899
     22 C           7.7540   -6.3213   28.8754 C.3     1  UNL1        0.0326
     23 C           7.3474   -5.3832   27.7778 C.ar    1  UNL1       -0.0030
     24 C           6.6469   -4.0991   28.1097 C.ar    1  UNL1        0.0942
     25 N           6.2403   -3.1611   27.0120 N.ar    1  UNL1       -0.2475
     26 C           6.5343   -3.5072   25.5825 C.ar    1  UNL1        0.0694
     27 C           7.2349   -4.7913   25.2505 C.ar    1  UNL1       -0.0076
     28 C           7.6414   -5.7293   26.3482 C.ar    1  UNL1       -0.0058
     29 C           7.5289   -5.1375   23.8209 C.3     1  UNL1        0.0276
     30 C           7.1224   -4.1994   22.7233 C.3     1  UNL1        0.0065
     31 C           6.4218   -2.9153   23.0552 C.3     1  UNL1        0.0224
     32 C           6.1278   -2.5692   24.4848 C.3     1  UNL1        0.0978
@<TRIPOS>BOND
     1    22    23    1
     2    23    24   ar
     3    24    25   ar
     4    25    26   ar
     5    26    27   ar
     6    27    28   ar
     7    27    29    1
     8    29    30    1
     9    30    31    1
    10    31    32    1
    11    32    20    1
    12    20    21    1
    13    20    19    1
    14     1    19    1
    15     1     2    1
    16     2     3    1
    17     3     4   ar
    18     4     5   ar
    19     5     6   ar
    20     6     7   ar
    21     7     8   ar
    22     8    12    1
    23    12    13    1
    24    13    14    1
    25    14    15    1
    26    15    16    1
    27    16    17    1
    28     4     9    1
    29     9    10    1
    30    28    23   ar
    31    10     1    1
    32    32    26    1
    33     8     3   ar
    34    17    12    1
    35    15    18    1
    36    10    11    1
@<TRIPOS>MOLECULE
*****
 32 36 0 0 0
SMALL
GASTEIGER

@<TRIPOS>ATOM
      1 C           4.2937   -1.5576   25.5639 C.3     1  UNL1        0.0749
      2 C           3.2939   -0.5024   25.1937 C.3     1  UNL1        0.0444
      3 C           2.8308   -0.3735   23.7728 C.ar    1  UNL1       -0.0101
      4 C           3.3673   -1.2998   22.7221 C.ar    1  UNL1       -0.0091
      5 C           2.9042   -1.1709   21.3013 C.ar    1  UNL1       -0.0032
      6 C           1.9044   -0.1157   20.9311 C.ar    1  UNL1        0.0010
      7 C           1.3678    0.8106   21.9818 C.ar    1  UNL1        0.0142
      8 C           1.8310    0.6817   23.4027 C.ar    1  UNL1        0.0436
      9 C           4.3671   -2.3550   23.0922 C.3     1  UNL1        0.0954
     10 N           4.8303   -2.4839   24.5132 N.3     1  UNL1       -0.2934
     11 H           5.8432   -2.3644   24.5047 H       1  UNL1        0.1236
     12 N           1.2945    1.6080   24.4534 N.pl3   1  UNL1       -0.3049
     13 C           0.0560    1.2404   25.2158 C.3     1  UNL1        0.1079
     14 C          -0.4806    2.1667   26.2665 C.3     1  UNL1        0.0903
     15 N           0.2213    3.4607   26.5549 N.3     1  UNL1       -0.2946
     16 C           1.4597    3.8282   25.7926 C.3     1  UNL1        0.0903
     17 C           1.9963    2.9019   24.7418 C.3     1  UNL1        0.1079
     18 H           0.4775    3.4430   27.5420 H       1  UNL1        0.1233
     19 C           4.7568   -1.6865   26.9847 C.3     1  UNL1        0.0886
     20 N           6.1962   -1.9887   27.2799 N.3     1  UNL1       -0.2667
     21 C           7.2389   -0.9266   27.0939 C.3     1  UNL1        0.0899
     22 C           8.4842   -7.4839   23.8423 C.3     1  UNL1        0.0326
     23 C           8.0113   -6.4512   24.8220 C.ar    1  UNL1       -0.0030
     24 C           7.6148   -5.0870   24.3408 C.ar    1  UNL1        0.0942
     25 N           7.1419   -4.0542   25.3205 N.ar    1  UNL1       -0.2475
     26 C           7.0655   -4.3857   26.7814 C.ar    1  UNL1        0.0694
     27 C           7.4620   -5.7500   27.2626 C.ar    1  UNL1       -0.0076
     28 C           7.9349   -6.7827   26.2829 C.ar    1  UNL1       -0.0058
     29 C           7.3857   -6.0815   28.7235 C.3     1  UNL1        0.0276
     30 C           6.9128   -5.0488   29.7032 C.3     1  UNL1        0.0065
     31 C           6.5163   -3.6845   29.2220 C.3     1  UNL1        0.0224
     32 C           6.5927   -3.3530   27.7611 C.3     1  UNL1        0.0978
@<TRIPOS>BOND
     1    22    23    1
     2    23    24   ar
     3    24    25   ar
     4    25    26   ar
     5    26    27   ar
     6    27    28   ar
     7    27    29    1
     8    29    30    1
     9    30    31    1
    10    31    32    1
    11    32    20    1
    12    20    21    1
    13    20    19    1
    14     1    19    1
    15     1     2    1
    16     2     3    1
    17     3     4   ar
    18     4     5   ar
    19     5     6   ar
    20     6     7   ar
    21     7     8   ar
    22     8    12    1
    23    12    13    1
    24    13    14    1
    25    14    15    1
    26    15    16    1
    27    16    17    1
    28     4     9    1
    29     9    10    1
    30    28    23   ar
    31    10     1    1
    32    32    26    1
    33     8     3   ar
    34    17    12    1
    35    15    18    1
    36    10    11    1
