@<TRIPOS>MOLECULE
*****
 30 32 0 0 0
SMALL
GASTEIGER

@<TRIPOS>ATOM
      1 N          -8.6068  -20.0258   23.2346 N.am    1  UNL1       -0.2969
      2 C          -8.1652  -19.7987   21.8192 C.2     1  UNL1        0.2461
      3 O          -9.1286  -20.0126   20.6895 O.2     1  UNL1       -0.2701
      4 H          -7.9745  -19.8854   23.9761 H       1  UNL1        0.1501
      5 C          -6.7603  -19.3577   21.5334 C.ar    1  UNL1        0.0534
      6 C          -6.1494  -19.6238   20.1895 C.ar    1  UNL1        0.0045
      7 C          -4.7445  -19.1828   19.9037 C.ar    1  UNL1        0.0001
      8 C          -3.9504  -18.4758   20.9619 C.ar    1  UNL1        0.0001
      9 C          -4.5613  -18.2097   22.3057 C.ar    1  UNL1        0.0001
     10 C          -5.9663  -18.6507   22.5915 C.ar    1  UNL1        0.0045
     11 C          -2.5455  -18.0348   20.6761 C.ar    1  UNL1        0.0031
     12 C          -1.6342  -18.9106   19.8683 C.ar    1  UNL1        0.0207
     13 C          -0.2292  -18.4696   19.5825 C.ar    1  UNL1        0.0989
     14 N           0.2644  -17.1528   20.1045 N.ar    1  UNL1       -0.2423
     15 C          -0.6469  -16.2770   20.9123 C.ar    1  UNL1        0.0989
     16 C          -2.0519  -16.7181   21.1981 C.ar    1  UNL1        0.0207
     17 C         -10.0117  -20.4667   23.5204 C.3     1  UNL1        0.1167
     18 C         -12.5240  -17.7834   22.0242 C.ar    1  UNL1        0.1383
     19 C         -13.4007  -17.5221   23.2130 C.ar    1  UNL1        0.0369
     20 C         -13.1478  -18.2424   24.5042 C.ar    1  UNL1        0.0028
     21 C         -12.0181  -19.2239   24.6067 C.ar    1  UNL1       -0.0024
     22 C         -11.1414  -19.4852   23.4180 C.ar    1  UNL1        0.0005
     23 C         -11.3943  -18.7649   22.1267 C.ar    1  UNL1        0.0343
     24 O         -12.7769  -17.0631   20.7330 O.3     1  UNL1       -0.4754
     25 C         -11.6752  -16.2798   20.0829 C.3     1  UNL1        0.2068
     26 C         -10.6626  -15.5660   20.9285 C.3     1  UNL1        0.0646
     27 C          -9.4505  -16.2972   21.4248 C.3     1  UNL1        0.0760
     28 C          -9.6235  -16.2902   24.0170 C.3     1  UNL1        0.0897
     29 N          -8.8671  -15.9594   22.7647 N.3     1  UNL1       -0.2702
     30 C          -7.5272  -15.2907   22.8523 C.3     1  UNL1        0.0897
@<TRIPOS>BOND
     1    28    29    1
     2    29    30    1
     3    29    27    1
     4    27    26    1
     5    26    25    1
     6    25    24    1
     7    24    18    1
     8    18    19   ar
     9    19    20   ar
    10    20    21   ar
    11    21    22   ar
    12    22    17    1
    13    17     1    1
    14     1     2   am
    15     2     3    2
    16     2     5    1
    17     5     6   ar
    18     6     7   ar
    19     7     8   ar
    20     8    11    1
    21    11    12   ar
    22    12    13   ar
    23    13    14   ar
    24    14    15   ar
    25    15    16   ar
    26     8     9   ar
    27     9    10   ar
    28    22    23   ar
    29    23    18   ar
    30    10     5   ar
    31    16    11   ar
    32     1     4    1
@<TRIPOS>MOLECULE
*****
 30 32 0 0 0
SMALL
GASTEIGER

@<TRIPOS>ATOM
      1 N         -11.2940   -3.0528   19.2524 N.am    1  UNL1       -0.2969
      2 C         -11.8656   -2.0656   18.2783 C.2     1  UNL1        0.2461
      3 O         -11.2162   -1.8701   16.9404 O.2     1  UNL1       -0.2701
      4 H         -11.7203   -3.1812   20.1305 H       1  UNL1        0.1501
      5 C         -13.0866   -1.2739   18.6422 C.ar    1  UNL1        0.0534
      6 C         -14.2208   -1.9354   19.3673 C.ar    1  UNL1        0.0045
      7 C         -15.4418   -1.1437   19.7312 C.ar    1  UNL1        0.0001
      8 C         -15.5285    0.3096   19.3700 C.ar    1  UNL1        0.0001
      9 C         -14.3942    0.9711   18.6449 C.ar    1  UNL1        0.0001
     10 C         -13.1732    0.1793   18.2810 C.ar    1  UNL1        0.0045
     11 C         -16.7494    1.1013   19.7339 C.ar    1  UNL1        0.0031
     12 C         -17.4856    1.8720   18.6784 C.ar    1  UNL1        0.0207
     13 C         -18.7066    2.6637   19.0423 C.ar    1  UNL1        0.0989
     14 N         -19.1914    2.6847   20.4617 N.ar    1  UNL1       -0.2423
     15 C         -18.4552    1.9139   21.5171 C.ar    1  UNL1        0.0989
     16 C         -17.2342    1.1222   21.1532 C.ar    1  UNL1        0.0207
     17 C         -10.0731   -3.8445   18.8885 C.3     1  UNL1        0.1167
     18 C         -11.3964   -7.1815   17.1962 C.ar    1  UNL1        0.1383
     19 C         -10.4557   -8.1904   17.7853 C.ar    1  UNL1        0.0369
     20 C          -9.3874   -7.7507   18.7421 C.ar    1  UNL1        0.0028
     21 C          -9.2599   -6.3022   19.1099 C.ar    1  UNL1       -0.0024
     22 C         -10.2006   -5.2932   18.5208 C.ar    1  UNL1        0.0005
     23 C         -11.2689   -5.7329   17.5640 C.ar    1  UNL1        0.0343
     24 O         -12.4647   -7.6211   16.2394 O.3     1  UNL1       -0.4754
     25 C         -13.8919   -7.7012   16.6939 C.3     1  UNL1        0.2068
     26 C         -14.2375   -8.4373   17.9543 C.3     1  UNL1        0.0646
     27 C         -15.0504   -9.6963   17.8888 C.3     1  UNL1        0.0760
     28 C         -17.0822  -11.0987   18.6980 C.3     1  UNL1        0.0897
     29 N         -16.1783   -9.9118   18.8538 N.3     1  UNL1       -0.2702
     30 C         -16.4023   -8.9404   19.9747 C.3     1  UNL1        0.0897
@<TRIPOS>BOND
     1    28    29    1
     2    29    30    1
     3    29    27    1
     4    27    26    1
     5    26    25    1
     6    25    24    1
     7    24    18    1
     8    18    19   ar
     9    19    20   ar
    10    20    21   ar
    11    21    22   ar
    12    22    17    1
    13    17     1    1
    14     1     2   am
    15     2     3    2
    16     2     5    1
    17     5     6   ar
    18     6     7   ar
    19     7     8   ar
    20     8    11    1
    21    11    12   ar
    22    12    13   ar
    23    13    14   ar
    24    14    15   ar
    25    15    16   ar
    26     8     9   ar
    27     9    10   ar
    28    22    23   ar
    29    23    18   ar
    30    10     5   ar
    31    16    11   ar
    32     1     4    1
@<TRIPOS>MOLECULE
*****
 30 32 0 0 0
SMALL
GASTEIGER

@<TRIPOS>ATOM
      1 N          -1.4291    2.4051   20.9489 N.am    1  UNL1       -0.2969
      2 C          -0.0331    2.4046   21.4980 C.2     1  UNL1        0.2461
      3 O           0.4644    3.5820   22.2830 O.2     1  UNL1       -0.2701
      4 H          -1.7556    1.6323   20.4337 H       1  UNL1        0.1501
      5 C           0.8652    1.2268   21.2620 C.ar    1  UNL1        0.0534
      6 C           0.6276    0.3258   20.0866 C.ar    1  UNL1        0.0045
      7 C           1.5259   -0.8520   19.8506 C.ar    1  UNL1        0.0001
      8 C           2.6620   -1.1288   20.7902 C.ar    1  UNL1        0.0001
      9 C           2.8997   -0.2279   21.9657 C.ar    1  UNL1        0.0001
     10 C           2.0013    0.9500   22.2016 C.ar    1  UNL1        0.0045
     11 C           3.5604   -2.3066   20.5542 C.ar    1  UNL1        0.0031
     12 C           3.4093   -3.1273   19.3078 C.ar    1  UNL1        0.0207
     13 C           4.3077   -4.3051   19.0718 C.ar    1  UNL1        0.0989
     14 N           5.3572   -4.6623   20.0824 N.ar    1  UNL1       -0.2423
     15 C           5.5082   -3.8415   21.3288 C.ar    1  UNL1        0.0989
     16 C           4.6098   -2.6637   21.5647 C.ar    1  UNL1        0.0207
     17 C          -2.3274    3.5828   21.1848 C.3     1  UNL1        0.1167
     18 C          -3.6133    3.6001   24.9394 C.ar    1  UNL1        0.1383
     19 C          -5.0984    3.6245   24.7303 C.ar    1  UNL1        0.0369
     20 C          -5.6599    3.6350   23.3394 C.ar    1  UNL1        0.0028
     21 C          -4.7362    3.6211   22.1576 C.ar    1  UNL1       -0.0024
     22 C          -3.2511    3.5967   22.3667 C.ar    1  UNL1        0.0005
     23 C          -2.6896    3.5862   23.7576 C.ar    1  UNL1        0.0343
     24 O          -3.0518    3.5896   26.3303 O.3     1  UNL1       -0.4754
     25 C          -1.5747    3.4359   26.5417 C.3     1  UNL1        0.2068
     26 C          -0.9637    2.0672   26.5990 C.3     1  UNL1        0.0646
     27 C           0.0868    1.7571   27.6239 C.3     1  UNL1        0.0760
     28 C          -1.3392   -0.1104   28.7325 C.3     1  UNL1        0.0897
     29 N          -0.0006    0.4946   28.4292 N.3     1  UNL1       -0.2702
     30 C           1.2508   -0.1629   28.9311 C.3     1  UNL1        0.0897
@<TRIPOS>BOND
     1    28    29    1
     2    29    30    1
     3    29    27    1
     4    27    26    1
     5    26    25    1
     6    25    24    1
     7    24    18    1
     8    18    19   ar
     9    19    20   ar
    10    20    21   ar
    11    21    22   ar
    12    22    17    1
    13    17     1    1
    14     1     2   am
    15     2     3    2
    16     2     5    1
    17     5     6   ar
    18     6     7   ar
    19     7     8   ar
    20     8    11    1
    21    11    12   ar
    22    12    13   ar
    23    13    14   ar
    24    14    15   ar
    25    15    16   ar
    26     8     9   ar
    27     9    10   ar
    28    22    23   ar
    29    23    18   ar
    30    10     5   ar
    31    16    11   ar
    32     1     4    1
@<TRIPOS>MOLECULE
*****
 30 32 0 0 0
SMALL
GASTEIGER

@<TRIPOS>ATOM
      1 N           6.1596   -4.1329   25.4480 N.am    1  UNL1       -0.2969
      2 C           6.3147   -4.3163   23.9673 C.2     1  UNL1        0.2461
      3 O           7.2965   -5.3174   23.4344 O.2     1  UNL1       -0.2701
      4 H           5.5153   -3.4759   25.7978 H       1  UNL1        0.1501
      5 C           5.4881   -3.4987   23.0197 C.ar    1  UNL1        0.0534
      6 C           4.5324   -2.4723   23.5518 C.ar    1  UNL1        0.0045
      7 C           3.7057   -1.6546   22.6041 C.ar    1  UNL1        0.0001
      8 C           3.8349   -1.8633   21.1243 C.ar    1  UNL1        0.0001
      9 C           4.7906   -2.8897   20.5922 C.ar    1  UNL1        0.0001
     10 C           5.6173   -3.7074   21.5399 C.ar    1  UNL1        0.0045
     11 C           3.0082   -1.0457   20.1766 C.ar    1  UNL1        0.0031
     12 C           3.5700   -0.6457   18.8445 C.ar    1  UNL1        0.0207
     13 C           2.7434    0.1719   17.8969 C.ar    1  UNL1        0.0989
     14 N           1.3549    0.5897   18.2813 N.ar    1  UNL1       -0.2423
     15 C           0.7931    0.1897   19.6134 C.ar    1  UNL1        0.0989
     16 C           1.6198   -0.6280   20.5610 C.ar    1  UNL1        0.0207
     17 C           6.9862   -4.9506   26.3957 C.3     1  UNL1        0.1167
     18 C           6.5146   -3.0546   29.8501 C.ar    1  UNL1        0.1383
     19 C           6.7680   -4.1687   30.8219 C.ar    1  UNL1        0.0369
     20 C           7.0941   -5.5435   30.3183 C.ar    1  UNL1        0.0028
     21 C           7.1669   -5.8041   28.8429 C.ar    1  UNL1       -0.0024
     22 C           6.9135   -4.6900   27.8711 C.ar    1  UNL1        0.0005
     23 C           6.5874   -3.3152   28.3747 C.ar    1  UNL1        0.0343
     24 O           6.1885   -1.6798   30.3537 O.3     1  UNL1       -0.4754
     25 C           5.1471   -1.4984   31.4179 C.3     1  UNL1        0.2068
     26 C           4.0908   -0.4448   31.2618 C.3     1  UNL1        0.0646
     27 C           2.7274   -0.8183   30.7598 C.3     1  UNL1        0.0760
     28 C           1.0131   -0.1165   28.9381 C.3     1  UNL1        0.0897
     29 N           2.3775   -0.6124   29.3158 N.3     1  UNL1       -0.2702
     30 C           3.3919   -0.9022   28.2495 C.3     1  UNL1        0.0897
@<TRIPOS>BOND
     1    28    29    1
     2    29    30    1
     3    29    27    1
     4    27    26    1
     5    26    25    1
     6    25    24    1
     7    24    18    1
     8    18    19   ar
     9    19    20   ar
    10    20    21   ar
    11    21    22   ar
    12    22    17    1
    13    17     1    1
    14     1     2   am
    15     2     3    2
    16     2     5    1
    17     5     6   ar
    18     6     7   ar
    19     7     8   ar
    20     8    11    1
    21    11    12   ar
    22    12    13   ar
    23    13    14   ar
    24    14    15   ar
    25    15    16   ar
    26     8     9   ar
    27     9    10   ar
    28    22    23   ar
    29    23    18   ar
    30    10     5   ar
    31    16    11   ar
    32     1     4    1
@<TRIPOS>MOLECULE
*****
 30 32 0 0 0
SMALL
GASTEIGER

@<TRIPOS>ATOM
      1 N           6.2077   -4.1572   25.3117 N.am    1  UNL1       -0.2969
      2 C           6.2952   -4.2677   23.8183 C.2     1  UNL1        0.2461
      3 O           7.2794   -5.2109   23.1924 O.2     1  UNL1       -0.2701
      4 H           5.5617   -3.5381   25.7225 H       1  UNL1        0.1501
      5 C           5.3985   -3.4350   22.9508 C.ar    1  UNL1        0.0534
      6 C           4.5724   -2.3404   23.5586 C.ar    1  UNL1        0.0045
      7 C           3.6758   -1.5077   22.6911 C.ar    1  UNL1        0.0001
      8 C           3.6052   -1.7696   21.2158 C.ar    1  UNL1        0.0001
      9 C           4.4313   -2.8642   20.6080 C.ar    1  UNL1        0.0001
     10 C           5.3280   -3.6969   21.4756 C.ar    1  UNL1        0.0045
     11 C           2.7085   -0.9369   20.3483 C.ar    1  UNL1        0.0031
     12 C           1.3558   -0.5228   20.8471 C.ar    1  UNL1        0.0207
     13 C           0.4591    0.3098   19.9796 C.ar    1  UNL1        0.0989
     14 N           0.9151    0.7285   18.6132 N.ar    1  UNL1       -0.2423
     15 C           2.2678    0.3144   18.1144 C.ar    1  UNL1        0.0989
     16 C           3.1645   -0.5184   18.9820 C.ar    1  UNL1        0.0207
     17 C           7.1044   -4.9898   26.1792 C.3     1  UNL1        0.1167
     18 C           6.4643   -3.4727   29.7901 C.ar    1  UNL1        0.1383
     19 C           6.8731   -4.6254   30.6584 C.ar    1  UNL1        0.0369
     20 C           7.3590   -5.8996   30.0337 C.ar    1  UNL1        0.0028
     21 C           7.4361   -6.0211   28.5407 C.ar    1  UNL1       -0.0024
     22 C           7.0273   -4.8684   27.6723 C.ar    1  UNL1        0.0005
     23 C           6.5414   -3.5942   28.2970 C.ar    1  UNL1        0.0343
     24 O           5.9784   -2.1985   30.4148 O.3     1  UNL1       -0.4754
     25 C           5.8216   -2.1053   31.9037 C.3     1  UNL1        0.2068
     26 C           4.4534   -2.1406   32.5174 C.3     1  UNL1        0.0646
     27 C           4.2805   -1.8613   33.9810 C.3     1  UNL1        0.0760
     28 C           3.9611    0.7170   33.9990 C.3     1  UNL1        0.0897
     29 N           4.6336   -0.5124   34.5340 N.3     1  UNL1       -0.2702
     30 C           5.6594   -0.3930   35.6220 C.3     1  UNL1        0.0897
@<TRIPOS>BOND
     1    28    29    1
     2    29    30    1
     3    29    27    1
     4    27    26    1
     5    26    25    1
     6    25    24    1
     7    24    18    1
     8    18    19   ar
     9    19    20   ar
    10    20    21   ar
    11    21    22   ar
    12    22    17    1
    13    17     1    1
    14     1     2   am
    15     2     3    2
    16     2     5    1
    17     5     6   ar
    18     6     7   ar
    19     7     8   ar
    20     8    11    1
    21    11    12   ar
    22    12    13   ar
    23    13    14   ar
    24    14    15   ar
    25    15    16   ar
    26     8     9   ar
    27     9    10   ar
    28    22    23   ar
    29    23    18   ar
    30    10     5   ar
    31    16    11   ar
    32     1     4    1
@<TRIPOS>MOLECULE
*****
 30 32 0 0 0
SMALL
GASTEIGER

@<TRIPOS>ATOM
      1 N           2.2277   -0.0959   24.2790 N.am    1  UNL1       -0.2969
      2 C           2.0157    0.9183   25.3637 C.2     1  UNL1        0.2461
      3 O           3.1152    1.2125   26.3407 O.2     1  UNL1       -0.2701
      4 H           1.5061   -0.2890   23.6377 H       1  UNL1        0.1501
      5 C           0.7043    1.6383   25.4714 C.ar    1  UNL1        0.0534
      6 C           0.1212    2.3187   24.2684 C.ar    1  UNL1        0.0045
      7 C          -1.1903    3.0386   24.3761 C.ar    1  UNL1        0.0001
      8 C          -1.9188    3.0782   25.6868 C.ar    1  UNL1        0.0001
      9 C          -1.3357    2.3978   26.8897 C.ar    1  UNL1        0.0001
     10 C          -0.0242    1.6778   26.7820 C.ar    1  UNL1        0.0045
     11 C          -3.2302    3.7982   25.7945 C.ar    1  UNL1        0.0031
     12 C          -3.4431    4.8107   26.8806 C.ar    1  UNL1        0.0207
     13 C          -4.7545    5.5306   26.9883 C.ar    1  UNL1        0.0989
     14 N          -5.8533    5.2382   26.0098 N.ar    1  UNL1       -0.2423
     15 C          -5.6404    4.2257   24.9237 C.ar    1  UNL1        0.0989
     16 C          -4.3289    3.5057   24.8161 C.ar    1  UNL1        0.0207
     17 C           3.5392   -0.8159   24.1713 C.3     1  UNL1        0.1167
     18 C           3.6387   -2.1255   20.4263 C.ar    1  UNL1        0.1383
     19 C           4.3948   -3.4099   20.5952 C.ar    1  UNL1        0.0369
     20 C           4.8657   -3.8297   21.9561 C.ar    1  UNL1        0.0028
     21 C           4.5805   -2.9650   23.1481 C.ar    1  UNL1       -0.0024
     22 C           3.8244   -1.6806   22.9792 C.ar    1  UNL1        0.0005
     23 C           3.3535   -1.2609   21.6183 C.ar    1  UNL1        0.0343
     24 O           3.1678   -1.7058   19.0654 O.3     1  UNL1       -0.4754
     25 C           3.7425   -0.4810   18.4176 C.3     1  UNL1        0.2068
     26 C           2.8670    0.7075   18.1515 C.3     1  UNL1        0.0646
     27 C           1.3922    0.6263   18.4130 C.3     1  UNL1        0.0760
     28 C           0.7513    2.8637   19.5677 C.3     1  UNL1        0.0897
     29 N           0.7946    1.3644   19.5742 N.3     1  UNL1       -0.2702
     30 C           0.2405    0.6030   20.7418 C.3     1  UNL1        0.0897
@<TRIPOS>BOND
     1    28    29    1
     2    29    30    1
     3    29    27    1
     4    27    26    1
     5    26    25    1
     6    25    24    1
     7    24    18    1
     8    18    19   ar
     9    19    20   ar
    10    20    21   ar
    11    21    22   ar
    12    22    17    1
    13    17     1    1
    14     1     2   am
    15     2     3    2
    16     2     5    1
    17     5     6   ar
    18     6     7   ar
    19     7     8   ar
    20     8    11    1
    21    11    12   ar
    22    12    13   ar
    23    13    14   ar
    24    14    15   ar
    25    15    16   ar
    26     8     9   ar
    27     9    10   ar
    28    22    23   ar
    29    23    18   ar
    30    10     5   ar
    31    16    11   ar
    32     1     4    1
@<TRIPOS>MOLECULE
*****
 30 32 0 0 0
SMALL
GASTEIGER

@<TRIPOS>ATOM
      1 N          -8.8531  -19.1800   20.1959 N.am    1  UNL1       -0.2969
      2 C          -7.8351  -19.5738   21.2249 C.2     1  UNL1        0.2461
      3 O          -8.2541  -20.3592   22.4322 O.2     1  UNL1       -0.2701
      4 H          -8.5781  -18.6646   19.4035 H       1  UNL1        0.1501
      5 C          -6.3982  -19.1822   21.0466 C.ar    1  UNL1        0.0534
      6 C          -5.7873  -19.1749   19.6766 C.ar    1  UNL1        0.0045
      7 C          -4.3504  -18.7832   19.4983 C.ar    1  UNL1        0.0001
      8 C          -3.5243  -18.3989   20.6899 C.ar    1  UNL1        0.0001
      9 C          -4.1352  -18.4063   22.0599 C.ar    1  UNL1        0.0001
     10 C          -5.5722  -18.7979   22.2382 C.ar    1  UNL1        0.0045
     11 C          -2.0874  -18.0073   20.5116 C.ar    1  UNL1        0.0031
     12 C          -1.6329  -16.6291   20.8913 C.ar    1  UNL1        0.0207
     13 C          -0.1960  -16.2375   20.7129 C.ar    1  UNL1        0.0989
     14 N           0.7866  -17.2241   20.1549 N.ar    1  UNL1       -0.2423
     15 C           0.3321  -18.6022   19.7753 C.ar    1  UNL1        0.0989
     16 C          -1.1049  -18.9938   19.9536 C.ar    1  UNL1        0.0207
     17 C         -10.2900  -19.5717   20.3743 C.3     1  UNL1        0.1167
     18 C         -11.3977  -18.4649   24.0209 C.ar    1  UNL1        0.1383
     19 C         -12.7069  -17.7941   23.7281 C.ar    1  UNL1        0.0369
     20 C         -13.2105  -17.7157   22.3174 C.ar    1  UNL1        0.0028
     21 C         -12.4049  -18.3082   21.1994 C.ar    1  UNL1       -0.0024
     22 C         -11.0957  -18.9791   21.4922 C.ar    1  UNL1        0.0005
     23 C         -10.5921  -19.0575   22.9030 C.ar    1  UNL1        0.0343
     24 O         -10.8941  -18.5433   25.4317 O.3     1  UNL1       -0.4754
     25 C          -9.5737  -17.9296   25.7919 C.3     1  UNL1        0.2068
     26 C          -9.0812  -16.7215   25.0515 C.3     1  UNL1        0.0646
     27 C          -8.1893  -15.7316   25.7405 C.3     1  UNL1        0.0760
     28 C          -6.5447  -15.3636   23.7632 C.3     1  UNL1        0.0897
     29 N          -6.7960  -15.4992   25.2357 N.3     1  UNL1       -0.2702
     30 C          -5.6541  -15.4024   26.2036 C.3     1  UNL1        0.0897
@<TRIPOS>BOND
     1    28    29    1
     2    29    30    1
     3    29    27    1
     4    27    26    1
     5    26    25    1
     6    25    24    1
     7    24    18    1
     8    18    19   ar
     9    19    20   ar
    10    20    21   ar
    11    21    22   ar
    12    22    17    1
    13    17     1    1
    14     1     2   am
    15     2     3    2
    16     2     5    1
    17     5     6   ar
    18     6     7   ar
    19     7     8   ar
    20     8    11    1
    21    11    12   ar
    22    12    13   ar
    23    13    14   ar
    24    14    15   ar
    25    15    16   ar
    26     8     9   ar
    27     9    10   ar
    28    22    23   ar
    29    23    18   ar
    30    10     5   ar
    31    16    11   ar
    32     1     4    1
@<TRIPOS>MOLECULE
*****
 30 32 0 0 0
SMALL
GASTEIGER

@<TRIPOS>ATOM
      1 N           6.7037   -6.2104   27.4816 N.am    1  UNL1       -0.2969
      2 C           7.4568   -6.1095   28.7750 C.2     1  UNL1        0.2461
      3 O           8.5868   -7.0538   29.0604 O.2     1  UNL1       -0.2701
      4 H           5.9620   -5.5906   27.2943 H       1  UNL1        0.1501
      5 C           7.0799   -5.0645   29.7829 C.ar    1  UNL1        0.0534
      6 C           6.7395   -3.6752   29.3313 C.ar    1  UNL1        0.0045
      7 C           6.3625   -2.6302   30.3391 C.ar    1  UNL1        0.0001
      8 C           6.3260   -2.9745   31.7987 C.ar    1  UNL1        0.0001
      9 C           6.6664   -4.3638   32.2503 C.ar    1  UNL1        0.0001
     10 C           7.0433   -5.4089   31.2423 C.ar    1  UNL1        0.0045
     11 C           5.9491   -1.9295   32.8066 C.ar    1  UNL1        0.0031
     12 C           4.6684   -2.0579   33.5769 C.ar    1  UNL1        0.0207
     13 C           4.2915   -1.0129   34.5848 C.ar    1  UNL1        0.0989
     14 N           5.1952    0.1606   34.8223 N.ar    1  UNL1       -0.2423
     15 C           6.4759    0.2890   34.0520 C.ar    1  UNL1        0.0989
     16 C           6.8528   -0.7561   33.0440 C.ar    1  UNL1        0.0207
     17 C           7.0806   -7.2554   26.4737 C.3     1  UNL1        0.1167
     18 C           7.9336   -5.1901   23.1939 C.ar    1  UNL1        0.1383
     19 C           9.0085   -6.0455   22.5918 C.ar    1  UNL1        0.0369
     20 C           9.4409   -7.3042   23.2837 C.ar    1  UNL1        0.0028
     21 C           8.7983   -7.7075   24.5776 C.ar    1  UNL1       -0.0024
     22 C           7.7233   -6.8521   25.1797 C.ar    1  UNL1        0.0005
     23 C           7.2909   -5.5934   24.4879 C.ar    1  UNL1        0.0343
     24 O           7.5012   -3.9313   22.5021 O.3     1  UNL1       -0.4754
     25 C           6.2014   -3.2806   22.8722 C.3     1  UNL1        0.2068
     26 C           4.9212   -3.7559   22.2517 C.3     1  UNL1        0.0646
     27 C           4.4450   -3.1561   20.9618 C.3     1  UNL1        0.0760
     28 C           6.2248   -2.7691   19.1091 C.3     1  UNL1        0.0897
     29 N           5.0806   -3.5634   19.6656 N.3     1  UNL1       -0.2702
     30 C           4.5719   -4.7652   18.9259 C.3     1  UNL1        0.0897
@<TRIPOS>BOND
     1    28    29    1
     2    29    30    1
     3    29    27    1
     4    27    26    1
     5    26    25    1
     6    25    24    1
     7    24    18    1
     8    18    19   ar
     9    19    20   ar
    10    20    21   ar
    11    21    22   ar
    12    22    17    1
    13    17     1    1
    14     1     2   am
    15     2     3    2
    16     2     5    1
    17     5     6   ar
    18     6     7   ar
    19     7     8   ar
    20     8    11    1
    21    11    12   ar
    22    12    13   ar
    23    13    14   ar
    24    14    15   ar
    25    15    16   ar
    26     8     9   ar
    27     9    10   ar
    28    22    23   ar
    29    23    18   ar
    30    10     5   ar
    31    16    11   ar
    32     1     4    1
@<TRIPOS>MOLECULE
*****
 30 32 0 0 0
SMALL
GASTEIGER

@<TRIPOS>ATOM
      1 N          -8.6937  -19.2929   19.6942 N.am    1  UNL1       -0.2969
      2 C          -7.8190  -19.3756   20.9100 C.2     1  UNL1        0.2461
      3 O          -8.4079  -19.7700   22.2320 O.2     1  UNL1       -0.2701
      4 H          -8.3072  -19.0341   18.8265 H       1  UNL1        0.1501
      5 C          -6.3557  -19.0640   20.8038 C.ar    1  UNL1        0.0534
      6 C          -5.5390  -18.8654   22.0462 C.ar    1  UNL1        0.0045
      7 C          -4.0756  -18.5537   21.9400 C.ar    1  UNL1        0.0001
      8 C          -3.4288  -18.4407   20.5913 C.ar    1  UNL1        0.0001
      9 C          -4.2454  -18.6394   19.3489 C.ar    1  UNL1        0.0001
     10 C          -5.7089  -18.9510   19.4551 C.ar    1  UNL1        0.0045
     11 C          -1.9654  -18.1291   20.4851 C.ar    1  UNL1        0.0031
     12 C          -1.4821  -16.7225   20.6793 C.ar    1  UNL1        0.0207
     13 C          -0.0187  -16.4109   20.5731 C.ar    1  UNL1        0.0989
     14 N           0.9615  -17.5059   20.2727 N.ar    1  UNL1       -0.2423
     15 C           0.4782  -18.9126   20.0784 C.ar    1  UNL1        0.0989
     16 C          -0.9853  -19.2242   20.1846 C.ar    1  UNL1        0.0207
     17 C         -10.1571  -19.6045   19.8004 C.3     1  UNL1        0.1167
     18 C         -12.6096  -17.9582   22.4508 C.ar    1  UNL1        0.1383
     19 C         -12.9461  -16.6685   21.7628 C.ar    1  UNL1        0.0369
     20 C         -12.3530  -16.3575   20.4206 C.ar    1  UNL1        0.0028
     21 C         -11.4234  -17.3362   19.7664 C.ar    1  UNL1       -0.0024
     22 C         -11.0868  -18.6258   20.4545 C.ar    1  UNL1        0.0005
     23 C         -11.6799  -18.9368   21.7967 C.ar    1  UNL1        0.0343
     24 O         -13.2027  -18.2692   23.7930 O.3     1  UNL1       -0.4754
     25 C         -12.3182  -18.7191   24.9178 C.3     1  UNL1        0.2068
     26 C         -10.8734  -19.0278   24.6584 C.3     1  UNL1        0.0646
     27 C          -9.8038  -18.3185   25.4348 C.3     1  UNL1        0.0760
     28 C          -9.4570  -16.6338   23.4876 C.3     1  UNL1        0.0897
     29 N          -9.2222  -17.0381   24.9129 N.3     1  UNL1       -0.2702
     30 C          -8.4058  -16.1620   25.8163 C.3     1  UNL1        0.0897
@<TRIPOS>BOND
     1    28    29    1
     2    29    30    1
     3    29    27    1
     4    27    26    1
     5    26    25    1
     6    25    24    1
     7    24    18    1
     8    18    19   ar
     9    19    20   ar
    10    20    21   ar
    11    21    22   ar
    12    22    17    1
    13    17     1    1
    14     1     2   am
    15     2     3    2
    16     2     5    1
    17     5     6   ar
    18     6     7   ar
    19     7     8   ar
    20     8    11    1
    21    11    12   ar
    22    12    13   ar
    23    13    14   ar
    24    14    15   ar
    25    15    16   ar
    26     8     9   ar
    27     9    10   ar
    28    22    23   ar
    29    23    18   ar
    30    10     5   ar
    31    16    11   ar
    32     1     4    1
