@<TRIPOS>MOLECULE
*****
 32 35 0 0 0
SMALL
GASTEIGER

@<TRIPOS>ATOM
      1 C         -15.6863    3.5793   18.3125 C.3     1  UNL1        0.0952
      2 C         -14.8352    2.3442   18.3158 C.2     1  UNL1        0.2298
      3 O         -13.4116    2.4130   17.8481 O.2     1  UNL1       -0.2745
      4 N         -15.4076    1.0402   18.7869 N.am    1  UNL1       -0.2605
      5 C         -14.5564   -0.1950   18.7903 C.ar    1  UNL1        0.0513
      6 C         -13.1329   -0.1261   18.3226 C.ar    1  UNL1        0.0146
      7 C         -12.2818   -1.3612   18.3260 C.ar    1  UNL1        0.0013
      8 C         -12.8541   -2.6652   18.7971 C.ar    1  UNL1       -0.0002
      9 C         -14.2777   -2.7341   19.2648 C.ar    1  UNL1       -0.0014
     10 C         -15.1288   -1.4990   19.2614 C.ar    1  UNL1        0.0092
     11 C         -16.5524   -1.5678   19.7291 C.3     1  UNL1        0.0947
     12 C         -17.4035   -0.3327   19.7257 C.3     1  UNL1        0.0442
     13 C         -16.8311    0.9713   19.2546 C.3     1  UNL1        0.0818
     14 C         -17.6823    2.2064   19.2513 C.3     1  UNL1        0.0220
     15 C         -12.0029   -3.9003   18.8004 C.ar    1  UNL1       -0.0000
     16 C         -12.6398   -5.2496   18.9545 C.ar    1  UNL1        0.0000
     17 C         -11.7886   -6.4848   18.9578 C.ar    1  UNL1        0.0011
     18 C         -10.3005   -6.3705   18.8072 C.ar    1  UNL1        0.0140
     19 C          -9.6637   -5.0211   18.6531 C.ar    1  UNL1        0.0011
     20 C         -10.5149   -3.7861   18.6498 C.ar    1  UNL1        0.0000
     21 C          -9.4493   -7.6056   18.8105 C.2     1  UNL1        0.0729
     22 O          -8.3505   -7.7564   19.8204 O.co2   1  UNL1       -0.5446
     23 O          -9.6969   -8.6898   17.8040 O.co2   1  UNL1       -0.5446
     24 N         -17.1248   -2.8718   20.2002 N.pl3   1  UNL1       -0.3305
     25 H         -17.4684   -2.9553   21.1190 H       1  UNL1        0.1471
     26 C         -17.1737   -4.0487   19.2714 C.ar    1  UNL1        0.0449
     27 C         -16.6160   -5.3714   19.7067 C.ar    1  UNL1        0.0152
     28 C         -16.6649   -6.5482   18.7779 C.ar    1  UNL1        0.0127
     29 C         -17.2714   -6.4023   17.4138 C.ar    1  UNL1        0.0578
     30 CL        -17.3203   -7.5791   16.4850 Cl      1  UNL1       -0.0822
     31 C         -17.8291   -5.0796   16.9785 C.ar    1  UNL1        0.0127
     32 C         -17.7802   -3.9028   17.9072 C.ar    1  UNL1        0.0152
@<TRIPOS>UNITY_ATOM_ATTR
22 1
charge -1
@<TRIPOS>BOND
     1     1     2    1
     2     2     3    2
     3     2     4   am
     4     4     5    1
     5     5     6   ar
     6     6     7   ar
     7     7     8   ar
     8     8    15    1
     9    15    16   ar
    10    16    17   ar
    11    17    18   ar
    12    18    21    1
    13    21    22   ar
    14    21    23   ar
    15    18    19   ar
    16    19    20   ar
    17     8     9   ar
    18     9    10   ar
    19    10    11    1
    20    11    24    1
    21    24    26    1
    22    26    27   ar
    23    27    28   ar
    24    28    29   ar
    25    29    30    1
    26    29    31   ar
    27    31    32   ar
    28    11    12    1
    29    12    13    1
    30    13    14    1
    31    13     4    1
    32    10     5   ar
    33    32    26   ar
    34    20    15   ar
    35    24    25    1
@<TRIPOS>MOLECULE
*****
 32 35 0 0 0
SMALL
GASTEIGER

@<TRIPOS>ATOM
      1 C           7.1999   -3.5044   26.9778 C.3     1  UNL1        0.0952
      2 C           6.1411   -2.6598   26.3332 C.2     1  UNL1        0.2298
      3 O           5.4180   -1.6204   27.1375 O.2     1  UNL1       -0.2745
      4 N           5.8053   -2.8545   24.8843 N.am    1  UNL1       -0.2605
      5 C           4.7465   -2.0098   24.2397 C.ar    1  UNL1        0.0513
      6 C           4.0235   -0.9705   25.0440 C.ar    1  UNL1        0.0146
      7 C           2.9647   -0.1259   24.3994 C.ar    1  UNL1        0.0013
      8 C           2.6289   -0.3206   22.9505 C.ar    1  UNL1       -0.0002
      9 C           3.3519   -1.3600   22.1462 C.ar    1  UNL1       -0.0014
     10 C           4.4107   -2.2046   22.7908 C.ar    1  UNL1        0.0092
     11 C           5.1338   -3.2440   21.9865 C.3     1  UNL1        0.0947
     12 C           6.1926   -4.0886   22.6311 C.3     1  UNL1        0.0442
     13 C           6.5284   -3.8939   24.0800 C.3     1  UNL1        0.0818
     14 C           7.5872   -4.7385   24.7246 C.3     1  UNL1        0.0220
     15 C           1.5701    0.5241   22.3059 C.ar    1  UNL1       -0.0000
     16 C           1.1840    0.2815   20.8769 C.ar    1  UNL1        0.0000
     17 C           0.1252    1.1262   20.2323 C.ar    1  UNL1        0.0011
     18 C          -0.5476    2.2134   21.0168 C.ar    1  UNL1        0.0140
     19 C          -0.1615    2.4559   22.4459 C.ar    1  UNL1        0.0011
     20 C           0.8973    1.6113   23.0904 C.ar    1  UNL1        0.0000
     21 C          -1.6064    3.0581   20.3723 C.2     1  UNL1        0.0729
     22 O          -3.0472    2.8667   20.7430 O.co2   1  UNL1       -0.5446
     23 O          -1.2244    4.0941   19.3570 O.co2   1  UNL1       -0.5446
     24 N           4.7980   -3.4387   20.5375 N.pl3   1  UNL1       -0.3305
     25 H           4.2825   -4.2279   20.2535 H       1  UNL1        0.1471
     26 C           5.2478   -2.4311   19.5215 C.ar    1  UNL1        0.0449
     27 C           4.2472   -1.7936   18.6036 C.ar    1  UNL1        0.0152
     28 C           4.6970   -0.7859   17.5875 C.ar    1  UNL1        0.0127
     29 C           6.1472   -0.4159   17.4893 C.ar    1  UNL1        0.0578
     30 CL          6.5970    0.5917   16.4732 Cl      1  UNL1       -0.0822
     31 C           7.1478   -1.0534   18.4071 C.ar    1  UNL1        0.0127
     32 C           6.6981   -2.0610   19.4232 C.ar    1  UNL1        0.0152
@<TRIPOS>UNITY_ATOM_ATTR
22 1
charge -1
@<TRIPOS>BOND
     1     1     2    1
     2     2     3    2
     3     2     4   am
     4     4     5    1
     5     5     6   ar
     6     6     7   ar
     7     7     8   ar
     8     8    15    1
     9    15    16   ar
    10    16    17   ar
    11    17    18   ar
    12    18    21    1
    13    21    22   ar
    14    21    23   ar
    15    18    19   ar
    16    19    20   ar
    17     8     9   ar
    18     9    10   ar
    19    10    11    1
    20    11    24    1
    21    24    26    1
    22    26    27   ar
    23    27    28   ar
    24    28    29   ar
    25    29    30    1
    26    29    31   ar
    27    31    32   ar
    28    11    12    1
    29    12    13    1
    30    13    14    1
    31    13     4    1
    32    10     5   ar
    33    32    26   ar
    34    20    15   ar
    35    24    25    1
@<TRIPOS>MOLECULE
*****
 32 35 0 0 0
SMALL
GASTEIGER

@<TRIPOS>ATOM
      1 C          -6.3517    4.1049   19.8794 C.3     1  UNL1        0.0952
      2 C          -5.5893    3.9234   21.1583 C.2     1  UNL1        0.2298
      3 O          -6.3187    3.8946   22.4688 O.2     1  UNL1       -0.2745
      4 N          -4.0974    3.7708   21.1270 N.am    1  UNL1       -0.2605
      5 C          -3.3349    3.5894   22.4060 C.ar    1  UNL1        0.0513
      6 C          -4.0644    3.5605   23.7163 C.ar    1  UNL1        0.0146
      7 C          -3.3020    3.3791   24.9953 C.ar    1  UNL1        0.0013
      8 C          -1.8101    3.2264   24.9639 C.ar    1  UNL1       -0.0002
      9 C          -1.0806    3.2553   23.6535 C.ar    1  UNL1       -0.0014
     10 C          -1.8431    3.4367   22.3746 C.ar    1  UNL1        0.0092
     11 C          -1.1136    3.4656   21.0642 C.3     1  UNL1        0.0947
     12 C          -1.8760    3.6471   19.7852 C.3     1  UNL1        0.0442
     13 C          -3.3679    3.7997   19.8166 C.3     1  UNL1        0.0818
     14 C          -4.1303    3.9811   18.5376 C.3     1  UNL1        0.0220
     15 C          -1.0477    3.0450   26.2429 C.ar    1  UNL1       -0.0000
     16 C          -0.6013    4.2436   27.0265 C.ar    1  UNL1        0.0000
     17 C           0.1611    4.0621   28.3055 C.ar    1  UNL1        0.0011
     18 C           0.4771    2.6820   28.8009 C.ar    1  UNL1        0.0140
     19 C           0.0308    1.4834   28.0172 C.ar    1  UNL1        0.0011
     20 C          -0.7316    1.6649   26.7383 C.ar    1  UNL1        0.0000
     21 C           1.2395    2.5005   30.0799 C.2     1  UNL1        0.0729
     22 O           2.3407    3.4539   30.4384 O.co2   1  UNL1       -0.5446
     23 O           0.9007    1.3656   31.0003 O.co2   1  UNL1       -0.5446
     24 N           0.3783    3.3130   21.0328 N.pl3   1  UNL1       -0.3305
     25 H           0.9564    4.0909   21.2054 H       1  UNL1        0.1471
     26 C           0.9893    1.9751   20.7385 C.ar    1  UNL1        0.0449
     27 C           1.5279    1.1340   21.8577 C.ar    1  UNL1        0.0152
     28 C           2.1390   -0.2039   21.5633 C.ar    1  UNL1        0.0127
     29 C           2.2114   -0.7007   20.1499 C.ar    1  UNL1        0.0578
     30 CL          2.8224   -2.0386   19.8556 Cl      1  UNL1       -0.0822
     31 C           1.6728    0.1403   19.0307 C.ar    1  UNL1        0.0127
     32 C           1.0618    1.4782   19.3250 C.ar    1  UNL1        0.0152
@<TRIPOS>UNITY_ATOM_ATTR
22 1
charge -1
@<TRIPOS>BOND
     1     1     2    1
     2     2     3    2
     3     2     4   am
     4     4     5    1
     5     5     6   ar
     6     6     7   ar
     7     7     8   ar
     8     8    15    1
     9    15    16   ar
    10    16    17   ar
    11    17    18   ar
    12    18    21    1
    13    21    22   ar
    14    21    23   ar
    15    18    19   ar
    16    19    20   ar
    17     8     9   ar
    18     9    10   ar
    19    10    11    1
    20    11    24    1
    21    24    26    1
    22    26    27   ar
    23    27    28   ar
    24    28    29   ar
    25    29    30    1
    26    29    31   ar
    27    31    32   ar
    28    11    12    1
    29    12    13    1
    30    13    14    1
    31    13     4    1
    32    10     5   ar
    33    32    26   ar
    34    20    15   ar
    35    24    25    1
@<TRIPOS>MOLECULE
*****
 32 35 0 0 0
SMALL
GASTEIGER

@<TRIPOS>ATOM
      1 C          -3.6738    5.6246   22.3208 C.3     1  UNL1        0.0952
      2 C          -2.6832    4.6755   21.7142 C.2     1  UNL1        0.2298
      3 O          -2.5179    4.6149   20.2245 O.2     1  UNL1       -0.2745
      4 N          -1.8580    3.7871   22.5972 N.am    1  UNL1       -0.2605
      5 C          -0.8673    2.8381   21.9905 C.ar    1  UNL1        0.0513
      6 C          -0.7020    2.7774   20.5009 C.ar    1  UNL1        0.0146
      7 C           0.2886    1.8284   19.8943 C.ar    1  UNL1        0.0013
      8 C           1.1138    0.9400   20.7772 C.ar    1  UNL1       -0.0002
      9 C           0.9485    1.0006   22.2668 C.ar    1  UNL1       -0.0014
     10 C          -0.0421    1.9496   22.8734 C.ar    1  UNL1        0.0092
     11 C          -0.2074    2.0103   24.3631 C.3     1  UNL1        0.0947
     12 C          -1.1980    2.9593   24.9697 C.3     1  UNL1        0.0442
     13 C          -2.0233    3.8477   24.0868 C.3     1  UNL1        0.0818
     14 C          -3.0139    4.7968   24.6935 C.3     1  UNL1        0.0220
     15 C           2.1045   -0.0091   20.1705 C.ar    1  UNL1       -0.0000
     16 C           2.5605    0.1864   18.7550 C.ar    1  UNL1        0.0000
     17 C           3.5511   -0.7627   18.1483 C.ar    1  UNL1        0.0011
     18 C           4.0857   -1.9072   18.9572 C.ar    1  UNL1        0.0140
     19 C           3.6296   -2.1026   20.3728 C.ar    1  UNL1        0.0011
     20 C           2.6390   -1.1536   20.9794 C.ar    1  UNL1        0.0000
     21 C           5.0762   -2.8562   18.3506 C.2     1  UNL1        0.0729
     22 O           6.1908   -2.3313   17.4949 O.co2   1  UNL1       -0.5446
     23 O           4.9522   -4.3301   18.5997 O.co2   1  UNL1       -0.5446
     24 N           0.6178    1.1219   25.2461 N.pl3   1  UNL1       -0.3305
     25 H           1.1513    0.3944   24.8518 H       1  UNL1        0.1471
     26 C           0.6303    1.3418   26.7298 C.ar    1  UNL1        0.0449
     27 C           1.6363    2.2709   27.3419 C.ar    1  UNL1        0.0152
     28 C           1.6487    2.4908   28.8257 C.ar    1  UNL1        0.0127
     29 C           0.6552    1.7815   29.6973 C.ar    1  UNL1        0.0578
     30 CL          0.6676    2.0014   31.1810 Cl      1  UNL1       -0.0822
     31 C          -0.3508    0.8524   29.0852 C.ar    1  UNL1        0.0127
     32 C          -0.3633    0.6325   27.6015 C.ar    1  UNL1        0.0152
@<TRIPOS>UNITY_ATOM_ATTR
22 1
charge -1
@<TRIPOS>BOND
     1     1     2    1
     2     2     3    2
     3     2     4   am
     4     4     5    1
     5     5     6   ar
     6     6     7   ar
     7     7     8   ar
     8     8    15    1
     9    15    16   ar
    10    16    17   ar
    11    17    18   ar
    12    18    21    1
    13    21    22   ar
    14    21    23   ar
    15    18    19   ar
    16    19    20   ar
    17     8     9   ar
    18     9    10   ar
    19    10    11    1
    20    11    24    1
    21    24    26    1
    22    26    27   ar
    23    27    28   ar
    24    28    29   ar
    25    29    30    1
    26    29    31   ar
    27    31    32   ar
    28    11    12    1
    29    12    13    1
    30    13    14    1
    31    13     4    1
    32    10     5   ar
    33    32    26   ar
    34    20    15   ar
    35    24    25    1
@<TRIPOS>MOLECULE
*****
 32 35 0 0 0
SMALL
GASTEIGER

@<TRIPOS>ATOM
      1 C          -7.9653    6.6100   26.4066 C.3     1  UNL1        0.0952
      2 C          -6.6340    5.9243   26.4923 C.2     1  UNL1        0.2298
      3 O          -5.8027    6.0528   27.7344 O.2     1  UNL1       -0.2745
      4 N          -6.1338    5.1101   25.3361 N.am    1  UNL1       -0.2605
      5 C          -4.8024    4.4244   25.4219 C.ar    1  UNL1        0.0513
      6 C          -3.9713    4.5529   26.6639 C.ar    1  UNL1        0.0146
      7 C          -2.6399    3.8673   26.7496 C.ar    1  UNL1        0.0013
      8 C          -2.1398    3.0531   25.5934 C.ar    1  UNL1       -0.0002
      9 C          -2.9710    2.9245   24.3514 C.ar    1  UNL1       -0.0014
     10 C          -4.3023    3.6102   24.2656 C.ar    1  UNL1        0.0092
     11 C          -5.1335    3.4817   23.0236 C.3     1  UNL1        0.0947
     12 C          -6.4648    4.1673   22.9378 C.3     1  UNL1        0.0442
     13 C          -6.9650    4.9816   24.0941 C.3     1  UNL1        0.0818
     14 C          -8.2964    5.6672   24.0083 C.3     1  UNL1        0.0220
     15 C          -0.8084    2.3674   25.6792 C.ar    1  UNL1       -0.0000
     16 C          -0.0489    2.0445   24.4266 C.ar    1  UNL1        0.0000
     17 C           1.2825    1.3588   24.5124 C.ar    1  UNL1        0.0011
     18 C           1.8543    0.9960   25.8508 C.ar    1  UNL1        0.0140
     19 C           1.0948    1.3189   27.1034 C.ar    1  UNL1        0.0011
     20 C          -0.2365    2.0046   27.0176 C.ar    1  UNL1        0.0000
     21 C           3.1857    0.3104   25.9366 C.2     1  UNL1        0.0729
     22 O           4.1795    0.7299   26.9789 O.co2   1  UNL1       -0.5446
     23 O           3.5231   -0.7947   24.9802 O.co2   1  UNL1       -0.5446
     24 N          -4.6334    2.6675   21.8673 N.pl3   1  UNL1       -0.3305
     25 H          -4.4246    1.7133   21.9909 H       1  UNL1        0.1471
     26 C          -4.4513    3.3070   20.5228 C.ar    1  UNL1        0.0449
     27 C          -3.1458    3.9571   20.1721 C.ar    1  UNL1        0.0152
     28 C          -2.9638    4.5967   18.8275 C.ar    1  UNL1        0.0127
     29 C          -4.0872    4.5860   17.8336 C.ar    1  UNL1        0.0578
     30 CL         -3.9051    5.2255   16.4891 Cl      1  UNL1       -0.0822
     31 C          -5.3927    3.9358   18.1843 C.ar    1  UNL1        0.0127
     32 C          -5.5747    3.2963   19.5288 C.ar    1  UNL1        0.0152
@<TRIPOS>UNITY_ATOM_ATTR
22 1
charge -1
@<TRIPOS>BOND
     1     1     2    1
     2     2     3    2
     3     2     4   am
     4     4     5    1
     5     5     6   ar
     6     6     7   ar
     7     7     8   ar
     8     8    15    1
     9    15    16   ar
    10    16    17   ar
    11    17    18   ar
    12    18    21    1
    13    21    22   ar
    14    21    23   ar
    15    18    19   ar
    16    19    20   ar
    17     8     9   ar
    18     9    10   ar
    19    10    11    1
    20    11    24    1
    21    24    26    1
    22    26    27   ar
    23    27    28   ar
    24    28    29   ar
    25    29    30    1
    26    29    31   ar
    27    31    32   ar
    28    11    12    1
    29    12    13    1
    30    13    14    1
    31    13     4    1
    32    10     5   ar
    33    32    26   ar
    34    20    15   ar
    35    24    25    1
@<TRIPOS>MOLECULE
*****
 32 35 0 0 0
SMALL
GASTEIGER

@<TRIPOS>ATOM
      1 C           6.8511   -1.1069   32.3268 C.3     1  UNL1        0.0952
      2 C           6.5704   -1.2189   30.8576 C.2     1  UNL1        0.2298
      3 O           7.6870   -1.5164   29.9012 O.2     1  UNL1       -0.2745
      4 N           5.1730   -1.0335   30.3448 N.am    1  UNL1       -0.2605
      5 C           4.8923   -1.1454   28.8755 C.ar    1  UNL1        0.0513
      6 C           6.0089   -1.4429   27.9192 C.ar    1  UNL1        0.0146
      7 C           5.7281   -1.5548   26.4500 C.ar    1  UNL1        0.0013
      8 C           4.3308   -1.3694   25.9371 C.ar    1  UNL1       -0.0002
      9 C           3.2142   -1.0720   26.8935 C.ar    1  UNL1       -0.0014
     10 C           3.4949   -0.9600   28.3627 C.ar    1  UNL1        0.0092
     11 C           2.3783   -0.6625   29.3192 C.3     1  UNL1        0.0947
     12 C           2.6590   -0.5506   30.7884 C.3     1  UNL1        0.0442
     13 C           4.0564   -0.7360   31.3012 C.3     1  UNL1        0.0818
     14 C           4.3371   -0.6240   32.7705 C.3     1  UNL1        0.0220
     15 C           4.0500   -1.4814   24.4678 C.ar    1  UNL1       -0.0000
     16 C           4.6970   -2.5680   23.6614 C.ar    1  UNL1        0.0000
     17 C           4.4163   -2.6800   22.1921 C.ar    1  UNL1        0.0011
     18 C           3.4886   -1.7053   21.5293 C.ar    1  UNL1        0.0140
     19 C           2.8415   -0.6186   22.3359 C.ar    1  UNL1        0.0011
     20 C           3.1223   -0.5066   23.8051 C.ar    1  UNL1        0.0000
     21 C           3.2078   -1.8172   20.0601 C.2     1  UNL1        0.0729
     22 O           2.5068   -0.7015   19.3434 O.co2   1  UNL1       -0.5446
     23 O           3.6281   -3.0449   19.3077 O.co2   1  UNL1       -0.5446
     24 N           0.9809   -0.4771   28.8063 N.pl3   1  UNL1       -0.3305
     25 H           0.3677   -1.2458   28.7596 H       1  UNL1        0.1471
     26 C           0.5179    0.8796   28.3648 C.ar    1  UNL1        0.0449
     27 C           1.1082    2.1118   28.9839 C.ar    1  UNL1        0.0152
     28 C           0.6452    3.4685   28.5423 C.ar    1  UNL1        0.0127
     29 C          -0.4081    3.5930   27.4816 C.ar    1  UNL1        0.0578
     30 CL         -0.8711    4.9497   27.0401 Cl      1  UNL1       -0.0822
     31 C          -0.9984    2.3608   26.8625 C.ar    1  UNL1        0.0127
     32 C          -0.5354    1.0041   27.3041 C.ar    1  UNL1        0.0152
@<TRIPOS>UNITY_ATOM_ATTR
22 1
charge -1
@<TRIPOS>BOND
     1     1     2    1
     2     2     3    2
     3     2     4   am
     4     4     5    1
     5     5     6   ar
     6     6     7   ar
     7     7     8   ar
     8     8    15    1
     9    15    16   ar
    10    16    17   ar
    11    17    18   ar
    12    18    21    1
    13    21    22   ar
    14    21    23   ar
    15    18    19   ar
    16    19    20   ar
    17     8     9   ar
    18     9    10   ar
    19    10    11    1
    20    11    24    1
    21    24    26    1
    22    26    27   ar
    23    27    28   ar
    24    28    29   ar
    25    29    30    1
    26    29    31   ar
    27    31    32   ar
    28    11    12    1
    29    12    13    1
    30    13    14    1
    31    13     4    1
    32    10     5   ar
    33    32    26   ar
    34    20    15   ar
    35    24    25    1
@<TRIPOS>MOLECULE
*****
 32 35 0 0 0
SMALL
GASTEIGER

@<TRIPOS>ATOM
      1 C           7.5309   -5.8111   30.9179 C.3     1  UNL1        0.0952
      2 C           7.3234   -5.5545   29.4547 C.2     1  UNL1        0.2298
      3 O           7.6531   -6.6205   28.4522 O.2     1  UNL1       -0.2745
      4 N           6.7861   -4.2320   28.9940 N.am    1  UNL1       -0.2605
      5 C           6.5786   -3.9755   27.5306 C.ar    1  UNL1        0.0513
      6 C           6.9083   -5.0414   26.5282 C.ar    1  UNL1        0.0146
      7 C           6.7008   -4.7849   25.0650 C.ar    1  UNL1        0.0013
      8 C           6.1636   -3.4623   24.6042 C.ar    1  UNL1       -0.0002
      9 C           5.8338   -2.3964   25.6066 C.ar    1  UNL1       -0.0014
     10 C           6.0413   -2.6529   27.0699 C.ar    1  UNL1        0.0092
     11 C           5.7116   -1.5869   28.0724 C.3     1  UNL1        0.0947
     12 C           5.9191   -1.8435   29.5356 C.3     1  UNL1        0.0442
     13 C           6.4564   -3.1660   29.9964 C.3     1  UNL1        0.0818
     14 C           6.6639   -3.4226   31.4597 C.3     1  UNL1        0.0220
     15 C           5.9561   -3.2058   23.1409 C.ar    1  UNL1       -0.0000
     16 C           7.0538   -2.5911   22.3242 C.ar    1  UNL1        0.0000
     17 C           6.8463   -2.3345   20.8608 C.ar    1  UNL1        0.0011
     18 C           5.5410   -2.6928   20.2143 C.ar    1  UNL1        0.0140
     19 C           4.4433   -3.3075   21.0311 C.ar    1  UNL1        0.0011
     20 C           4.6508   -3.5640   22.4944 C.ar    1  UNL1        0.0000
     21 C           5.3335   -2.4363   18.7511 C.2     1  UNL1        0.0729
     22 O           6.4874   -2.5473   17.7991 O.co2   1  UNL1       -0.5446
     23 O           3.9721   -2.0688   18.2398 O.co2   1  UNL1       -0.5446
     24 N           5.1743   -0.2644   27.6116 N.pl3   1  UNL1       -0.3305
     25 H           5.7885    0.4228   27.2657 H       1  UNL1        0.1471
     26 C           3.7014    0.0110   27.6780 C.ar    1  UNL1        0.0449
     27 C           2.8794   -0.5684   28.7910 C.ar    1  UNL1        0.0152
     28 C           1.4064   -0.2929   28.8573 C.ar    1  UNL1        0.0127
     29 C           0.7553    0.5618   27.8107 C.ar    1  UNL1        0.0578
     30 CL         -0.7176    0.8372   27.8771 Cl      1  UNL1       -0.0822
     31 C           1.5773    1.1412   26.6977 C.ar    1  UNL1        0.0127
     32 C           3.0503    0.8658   26.6313 C.ar    1  UNL1        0.0152
@<TRIPOS>UNITY_ATOM_ATTR
22 1
charge -1
@<TRIPOS>BOND
     1     1     2    1
     2     2     3    2
     3     2     4   am
     4     4     5    1
     5     5     6   ar
     6     6     7   ar
     7     7     8   ar
     8     8    15    1
     9    15    16   ar
    10    16    17   ar
    11    17    18   ar
    12    18    21    1
    13    21    22   ar
    14    21    23   ar
    15    18    19   ar
    16    19    20   ar
    17     8     9   ar
    18     9    10   ar
    19    10    11    1
    20    11    24    1
    21    24    26    1
    22    26    27   ar
    23    27    28   ar
    24    28    29   ar
    25    29    30    1
    26    29    31   ar
    27    31    32   ar
    28    11    12    1
    29    12    13    1
    30    13    14    1
    31    13     4    1
    32    10     5   ar
    33    32    26   ar
    34    20    15   ar
    35    24    25    1
@<TRIPOS>MOLECULE
*****
 32 35 0 0 0
SMALL
GASTEIGER

@<TRIPOS>ATOM
      1 C           3.8393   -0.4384   33.1031 C.3     1  UNL1        0.0952
      2 C           3.6112   -0.4715   31.6210 C.2     1  UNL1        0.2298
      3 O           2.3438    0.0866   31.0445 O.2     1  UNL1       -0.2745
      4 N           4.6505   -1.0627   30.7152 N.am    1  UNL1       -0.2605
      5 C           4.4224   -1.0958   29.2330 C.ar    1  UNL1        0.0513
      6 C           3.1550   -0.5377   28.6566 C.ar    1  UNL1        0.0146
      7 C           2.9269   -0.5707   27.1744 C.ar    1  UNL1        0.0013
      8 C           3.9662   -1.1619   26.2687 C.ar    1  UNL1       -0.0002
      9 C           5.2336   -1.7200   26.8451 C.ar    1  UNL1       -0.0014
     10 C           5.4616   -1.6869   28.3272 C.ar    1  UNL1        0.0092
     11 C           6.7291   -2.2451   28.9037 C.3     1  UNL1        0.0947
     12 C           6.9571   -2.2120   30.3859 C.3     1  UNL1        0.0442
     13 C           5.9178   -1.6208   31.2916 C.3     1  UNL1        0.0818
     14 C           6.1460   -1.5877   32.7739 C.3     1  UNL1        0.0220
     15 C           3.7381   -1.1950   24.7864 C.ar    1  UNL1       -0.0000
     16 C           4.4428   -2.2146   23.9417 C.ar    1  UNL1        0.0000
     17 C           4.2147   -2.2477   22.4595 C.ar    1  UNL1        0.0011
     18 C           3.2818   -1.2611   21.8221 C.ar    1  UNL1        0.0140
     19 C           2.5770   -0.2414   22.6669 C.ar    1  UNL1        0.0011
     20 C           2.8052   -0.2084   24.1490 C.ar    1  UNL1        0.0000
     21 C           3.0537   -1.2941   20.3399 C.2     1  UNL1        0.0729
     22 O           3.2124   -2.5806   19.5851 O.co2   1  UNL1       -0.5446
     23 O           2.6668   -0.0406   19.6126 O.co2   1  UNL1       -0.5446
     24 N           7.7683   -2.8362   27.9979 N.pl3   1  UNL1       -0.3305
     25 H           8.4163   -2.2504   27.5439 H       1  UNL1        0.1471
     26 C           7.8204   -4.3199   27.7840 C.ar    1  UNL1        0.0449
     27 C           7.1608   -4.9280   26.5818 C.ar    1  UNL1        0.0152
     28 C           7.2128   -6.4118   26.3679 C.ar    1  UNL1        0.0127
     29 C           7.9245   -7.2875   27.3561 C.ar    1  UNL1        0.0578
     30 CL          7.9765   -8.7712   27.1422 Cl      1  UNL1       -0.0822
     31 C           8.5841   -6.6795   28.5583 C.ar    1  UNL1        0.0127
     32 C           8.5320   -5.1957   28.7722 C.ar    1  UNL1        0.0152
@<TRIPOS>UNITY_ATOM_ATTR
22 1
charge -1
@<TRIPOS>BOND
     1     1     2    1
     2     2     3    2
     3     2     4   am
     4     4     5    1
     5     5     6   ar
     6     6     7   ar
     7     7     8   ar
     8     8    15    1
     9    15    16   ar
    10    16    17   ar
    11    17    18   ar
    12    18    21    1
    13    21    22   ar
    14    21    23   ar
    15    18    19   ar
    16    19    20   ar
    17     8     9   ar
    18     9    10   ar
    19    10    11    1
    20    11    24    1
    21    24    26    1
    22    26    27   ar
    23    27    28   ar
    24    28    29   ar
    25    29    30    1
    26    29    31   ar
    27    31    32   ar
    28    11    12    1
    29    12    13    1
    30    13    14    1
    31    13     4    1
    32    10     5   ar
    33    32    26   ar
    34    20    15   ar
    35    24    25    1
@<TRIPOS>MOLECULE
*****
 32 35 0 0 0
SMALL
GASTEIGER

@<TRIPOS>ATOM
      1 C           3.1174    0.2639   28.0674 C.3     1  UNL1        0.0952
      2 C           1.7895    0.9184   27.8268 C.2     1  UNL1        0.2298
      3 O           0.8883    1.2342   28.9837 O.2     1  UNL1       -0.2745
      4 N           1.3625    1.2572   26.4293 N.am    1  UNL1       -0.2605
      5 C           0.0345    1.9118   26.1887 C.ar    1  UNL1        0.0513
      6 C          -0.8666    2.2275   27.3455 C.ar    1  UNL1        0.0146
      7 C          -2.1946    2.8821   27.1049 C.ar    1  UNL1        0.0013
      8 C          -2.6215    3.2209   25.7074 C.ar    1  UNL1       -0.0002
      9 C          -1.7204    2.9051   24.5506 C.ar    1  UNL1       -0.0014
     10 C          -0.3924    2.2506   24.7912 C.ar    1  UNL1        0.0092
     11 C           0.5087    1.9348   23.6343 C.3     1  UNL1        0.0947
     12 C           1.8367    1.2803   23.8750 C.3     1  UNL1        0.0442
     13 C           2.2636    0.9415   25.2725 C.3     1  UNL1        0.0818
     14 C           3.5917    0.2869   25.5131 C.3     1  UNL1        0.0220
     15 C          -3.9496    3.8755   25.4668 C.ar    1  UNL1       -0.0000
     16 C          -4.5672    4.7325   26.5317 C.ar    1  UNL1        0.0000
     17 C          -5.8953    5.3871   26.2910 C.ar    1  UNL1        0.0011
     18 C          -6.6057    5.1846   24.9855 C.ar    1  UNL1        0.0140
     19 C          -5.9879    4.3275   23.9206 C.ar    1  UNL1        0.0011
     20 C          -4.6599    3.6730   24.1613 C.ar    1  UNL1        0.0000
     21 C          -7.9337    5.8391   24.7449 C.2     1  UNL1        0.0729
     22 O          -8.4874    5.9229   23.3533 O.co2   1  UNL1       -0.5446
     23 O          -8.7079    6.4099   25.8958 O.co2   1  UNL1       -0.5446
     24 N           0.0818    2.2736   22.2369 N.pl3   1  UNL1       -0.3305
     25 H          -0.6761    2.8840   22.0880 H       1  UNL1        0.1471
     26 C           0.8096    1.6823   21.0661 C.ar    1  UNL1        0.0449
     27 C           1.8097    2.5065   20.3107 C.ar    1  UNL1        0.0152
     28 C           2.5376    1.9151   19.1400 C.ar    1  UNL1        0.0127
     29 C           2.2653    0.4997   18.7247 C.ar    1  UNL1        0.0578
     30 CL          2.9932   -0.0915   17.5540 Cl      1  UNL1       -0.0822
     31 C           1.2653   -0.3244   19.4801 C.ar    1  UNL1        0.0127
     32 C           0.5374    0.2669   20.6508 C.ar    1  UNL1        0.0152
@<TRIPOS>UNITY_ATOM_ATTR
22 1
charge -1
@<TRIPOS>BOND
     1     1     2    1
     2     2     3    2
     3     2     4   am
     4     4     5    1
     5     5     6   ar
     6     6     7   ar
     7     7     8   ar
     8     8    15    1
     9    15    16   ar
    10    16    17   ar
    11    17    18   ar
    12    18    21    1
    13    21    22   ar
    14    21    23   ar
    15    18    19   ar
    16    19    20   ar
    17     8     9   ar
    18     9    10   ar
    19    10    11    1
    20    11    24    1
    21    24    26    1
    22    26    27   ar
    23    27    28   ar
    24    28    29   ar
    25    29    30    1
    26    29    31   ar
    27    31    32   ar
    28    11    12    1
    29    12    13    1
    30    13    14    1
    31    13     4    1
    32    10     5   ar
    33    32    26   ar
    34    20    15   ar
    35    24    25    1
