@<TRIPOS>MOLECULE
*****
 37 41 0 0 0
SMALL
GASTEIGER

@<TRIPOS>ATOM
      1 N          -8.9226  -18.2121   21.2457 N.3     1  UNL1       -0.2641
      2 C          -9.5504  -18.8935   22.4253 C.3     1  UNL1        0.0981
      3 C          -8.8190  -19.9965   23.1311 C.3     1  UNL1        0.0224
      4 C          -9.4469  -20.6780   24.3107 C.3     1  UNL1        0.0065
      5 C         -10.8062  -20.2563   24.7845 C.3     1  UNL1        0.0277
      6 C         -11.5376  -19.1533   24.0786 C.ar    1  UNL1       -0.0073
      7 C         -12.8970  -18.7316   24.5524 C.ar    1  UNL1       -0.0015
      8 C         -13.6284  -17.6286   23.8465 C.ar    1  UNL1        0.0203
      9 C         -13.0005  -16.9472   22.6669 C.ar    1  UNL1        0.0985
     10 N         -11.6412  -17.3688   22.1932 N.ar    1  UNL1       -0.2471
     11 C         -10.9097  -18.4719   22.8990 C.ar    1  UNL1        0.0695
     12 C          -8.8876  -18.9000   19.9132 C.3     1  UNL1        0.0989
     13 C          -6.5912  -20.0198   20.3853 C.2     1  UNL1       -0.0122
     14 C          -7.9081  -20.0092   19.6673 C.2     1  UNL1       -0.0120
     15 C          -5.6118  -21.1290   20.1393 C.3     1  UNL1        0.0950
     16 N          -4.1912  -20.8091   19.7794 N.3     1  UNL1       -0.2948
     17 H          -3.6289  -21.6138   20.0563 H       1  UNL1        0.1235
     18 F          -1.3534  -16.0049   21.0864 F       1  UNL1       -0.2043
     19 C          -2.1948  -17.1697   21.5170 C.3     1  UNL1        0.2640
     20 F          -2.0166  -16.4759   22.8348 F       1  UNL1       -0.2043
     21 C          -2.9742  -18.0935   22.4052 C.3     1  UNL1        0.0679
     22 C          -3.6397  -19.3067   21.8260 C.3     1  UNL1        0.0213
     23 C          -3.5257  -19.5960   20.3586 C.3     1  UNL1        0.0546
     24 C          -2.7462  -18.6721   19.4703 C.3     1  UNL1        0.0213
     25 C          -2.0808  -17.4590   20.0495 C.3     1  UNL1        0.0679
     26 C          -8.3297  -16.8428   21.3986 C.3     1  UNL1        0.0888
     27 C          -7.7098  -16.4351   22.7023 C.3     1  UNL1        0.0748
     28 C          -8.5819  -16.1198   23.8813 C.3     1  UNL1        0.0432
     29 C          -7.9620  -15.7122   25.1850 C.ar    1  UNL1       -0.0234
     30 C          -8.8340  -15.3969   26.3640 C.ar    1  UNL1       -0.0045
     31 C          -8.2141  -14.9892   27.6676 C.ar    1  UNL1       -0.0003
     32 C          -6.7222  -14.8969   27.7923 C.ar    1  UNL1       -0.0003
     33 C          -5.8501  -15.2122   26.6133 C.ar    1  UNL1       -0.0032
     34 C          -6.4700  -15.6198   25.3096 C.ar    1  UNL1       -0.0103
     35 C          -5.5980  -15.9351   24.1306 C.3     1  UNL1        0.0953
     36 N          -6.2178  -16.3428   22.8269 N.3     1  UNL1       -0.2934
     37 H          -5.8457  -17.2649   22.5995 H       1  UNL1        0.1236
@<TRIPOS>BOND
     1    18    19    1
     2    19    20    1
     3    19    21    1
     4    21    22    1
     5    22    23    1
     6    23    16    1
     7    16    15    1
     8    15    13    1
     9    13    14    2
    10    14    12    1
    11    12     1    1
    12     1    26    1
    13    27    26    1
    14    27    28    1
    15    28    29    1
    16    29    30   ar
    17    30    31   ar
    18    31    32   ar
    19    32    33   ar
    20    33    34   ar
    21    34    35    1
    22    35    36    1
    23     2     1    1
    24     2     3    1
    25     3     4    1
    26     4     5    1
    27     5     6    1
    28     6     7   ar
    29     7     8   ar
    30     8     9   ar
    31     9    10   ar
    32    10    11   ar
    33    23    24    1
    34    24    25    1
    35    25    19    1
    36    36    27    1
    37    11     2    1
    38    34    29   ar
    39    11     6   ar
    40    16    17    1
    41    36    37    1
@<TRIPOS>MOLECULE
*****
 37 41 0 0 0
SMALL
GASTEIGER

@<TRIPOS>ATOM
      1 N          -6.7613  -19.8146   21.9637 N.3     1  UNL1       -0.2641
      2 C          -7.9197  -19.3913   22.8174 C.3     1  UNL1        0.0981
      3 C          -8.9400  -20.4014   23.2516 C.3     1  UNL1        0.0224
      4 C         -10.0984  -19.9781   24.1054 C.3     1  UNL1        0.0065
      5 C         -10.2365  -18.5446   24.5249 C.3     1  UNL1        0.0277
      6 C          -9.2162  -17.5345   24.0907 C.ar    1  UNL1       -0.0073
      7 C          -9.3543  -16.1010   24.5103 C.ar    1  UNL1       -0.0015
      8 C          -8.3340  -15.0908   24.0761 C.ar    1  UNL1        0.0203
      9 C          -7.1756  -15.5141   23.2223 C.ar    1  UNL1        0.0985
     10 N          -7.0375  -16.9476   22.8028 N.ar    1  UNL1       -0.2471
     11 C          -8.0578  -17.9578   23.2370 C.ar    1  UNL1        0.0695
     12 C          -6.9614  -20.0641   20.4982 C.3     1  UNL1        0.0989
     13 C          -9.3153  -20.3265   19.4304 C.2     1  UNL1       -0.0122
     14 C          -8.1405  -19.4660   19.7897 C.2     1  UNL1       -0.0120
     15 C         -10.4943  -19.7283   18.7219 C.3     1  UNL1        0.0950
     16 N         -10.7489  -18.2523   18.8038 N.3     1  UNL1       -0.2948
     17 H          -9.8527  -17.7900   18.6503 H       1  UNL1        0.1235
     18 F         -12.5278  -15.1794   23.3019 F       1  UNL1       -0.2043
     19 C         -12.5027  -16.4758   22.5478 C.3     1  UNL1        0.2640
     20 F         -13.3732  -16.8649   23.7057 F       1  UNL1       -0.2043
     21 C         -12.7799  -17.9072   22.1958 C.3     1  UNL1        0.0679
     22 C         -12.1953  -18.4995   20.9477 C.3     1  UNL1        0.0213
     23 C         -11.3335  -17.6602   20.0518 C.3     1  UNL1        0.0546
     24 C         -11.0563  -16.2286   20.4038 C.3     1  UNL1        0.0213
     25 C         -11.6409  -15.6364   21.6518 C.3     1  UNL1        0.0679
     26 C          -5.4028  -19.9884   22.5754 C.3     1  UNL1        0.0888
     27 C          -4.2941  -19.0421   22.2214 C.3     1  UNL1        0.0748
     28 C          -3.2608  -19.4421   21.2103 C.3     1  UNL1        0.0432
     29 C          -2.1522  -18.4957   20.8562 C.ar    1  UNL1       -0.0234
     30 C          -1.1189  -18.8957   19.8452 C.ar    1  UNL1       -0.0045
     31 C          -0.0103  -17.9494   19.4912 C.ar    1  UNL1       -0.0003
     32 C           0.0650  -16.6030   20.1482 C.ar    1  UNL1       -0.0003
     33 C          -0.9682  -16.2030   21.1592 C.ar    1  UNL1       -0.0032
     34 C          -2.0768  -17.1494   21.5133 C.ar    1  UNL1       -0.0103
     35 C          -3.1102  -16.7494   22.5243 C.3     1  UNL1        0.0953
     36 N          -4.2188  -17.6957   22.8784 N.3     1  UNL1       -0.2934
     37 H          -5.0940  -17.2160   22.6678 H       1  UNL1        0.1236
@<TRIPOS>BOND
     1    18    19    1
     2    19    20    1
     3    19    21    1
     4    21    22    1
     5    22    23    1
     6    23    16    1
     7    16    15    1
     8    15    13    1
     9    13    14    2
    10    14    12    1
    11    12     1    1
    12     1    26    1
    13    27    26    1
    14    27    28    1
    15    28    29    1
    16    29    30   ar
    17    30    31   ar
    18    31    32   ar
    19    32    33   ar
    20    33    34   ar
    21    34    35    1
    22    35    36    1
    23     2     1    1
    24     2     3    1
    25     3     4    1
    26     4     5    1
    27     5     6    1
    28     6     7   ar
    29     7     8   ar
    30     8     9   ar
    31     9    10   ar
    32    10    11   ar
    33    23    24    1
    34    24    25    1
    35    25    19    1
    36    36    27    1
    37    11     2    1
    38    34    29   ar
    39    11     6   ar
    40    16    17    1
    41    36    37    1
@<TRIPOS>MOLECULE
*****
 37 41 0 0 0
SMALL
GASTEIGER

@<TRIPOS>ATOM
      1 N          -7.8728  -19.6651   21.5704 N.3     1  UNL1       -0.2641
      2 C          -8.5012  -19.2735   22.8750 C.3     1  UNL1        0.0981
      3 C          -9.3250  -20.2673   23.6389 C.3     1  UNL1        0.0224
      4 C          -9.9533  -19.8756   24.9434 C.3     1  UNL1        0.0065
      5 C          -9.7578  -18.4902   25.4841 C.3     1  UNL1        0.0277
      6 C          -8.9340  -17.4964   24.7202 C.ar    1  UNL1       -0.0073
      7 C          -8.7385  -16.1109   25.2608 C.ar    1  UNL1       -0.0015
      8 C          -7.9146  -15.1171   24.4969 C.ar    1  UNL1        0.0203
      9 C          -7.2863  -15.5087   23.1923 C.ar    1  UNL1        0.0985
     10 N          -7.4818  -16.8941   22.6517 N.ar    1  UNL1       -0.2471
     11 C          -8.3057  -17.8880   23.4156 C.ar    1  UNL1        0.0695
     12 C          -8.5884  -19.3906   20.2810 C.3     1  UNL1        0.0989
     13 C         -10.0420  -17.2387   20.3618 C.2     1  UNL1       -0.0122
     14 C          -9.9368  -18.7336   20.2967 C.2     1  UNL1       -0.0120
     15 C         -11.3904  -16.5818   20.3774 C.3     1  UNL1        0.0950
     16 N         -12.6299  -17.4165   20.5080 N.3     1  UNL1       -0.2948
     17 H         -13.3707  -16.9235   20.0094 H       1  UNL1        0.1235
     18 F         -13.8113  -18.4518   26.0192 F       1  UNL1       -0.2043
     19 C         -14.2503  -18.4161   24.5853 C.3     1  UNL1        0.2640
     20 F         -15.5168  -18.8908   25.2337 F       1  UNL1       -0.2043
     21 C         -15.1292  -18.5452   23.3767 C.3     1  UNL1        0.0679
     22 C         -14.5891  -18.2120   22.0175 C.3     1  UNL1        0.0213
     23 C         -13.1700  -17.7497   21.8670 C.3     1  UNL1        0.0546
     24 C         -12.2911  -17.6206   23.0758 C.3     1  UNL1        0.0213
     25 C         -12.8313  -17.9538   24.4349 C.3     1  UNL1        0.0679
     26 C          -6.5290  -20.3312   21.5553 C.3     1  UNL1        0.0888
     27 C          -5.2803  -19.5005   21.5280 C.3     1  UNL1        0.0748
     28 C          -4.4380  -19.4531   20.2877 C.3     1  UNL1        0.0432
     29 C          -3.1893  -18.6223   20.2604 C.ar    1  UNL1       -0.0234
     30 C          -2.3470  -18.5750   19.0201 C.ar    1  UNL1       -0.0045
     31 C          -1.0984  -17.7442   18.9928 C.ar    1  UNL1       -0.0003
     32 C          -0.6921  -16.9608   20.2058 C.ar    1  UNL1       -0.0003
     33 C          -1.5344  -17.0082   21.4460 C.ar    1  UNL1       -0.0032
     34 C          -2.7830  -17.8389   21.4733 C.ar    1  UNL1       -0.0103
     35 C          -3.6254  -17.8863   22.7136 C.3     1  UNL1        0.0953
     36 N          -4.8740  -18.7171   22.7409 N.3     1  UNL1       -0.2934
     37 H          -5.6445  -18.0836   22.9540 H       1  UNL1        0.1236
@<TRIPOS>BOND
     1    18    19    1
     2    19    20    1
     3    19    21    1
     4    21    22    1
     5    22    23    1
     6    23    16    1
     7    16    15    1
     8    15    13    1
     9    13    14    2
    10    14    12    1
    11    12     1    1
    12     1    26    1
    13    27    26    1
    14    27    28    1
    15    28    29    1
    16    29    30   ar
    17    30    31   ar
    18    31    32   ar
    19    32    33   ar
    20    33    34   ar
    21    34    35    1
    22    35    36    1
    23     2     1    1
    24     2     3    1
    25     3     4    1
    26     4     5    1
    27     5     6    1
    28     6     7   ar
    29     7     8   ar
    30     8     9   ar
    31     9    10   ar
    32    10    11   ar
    33    23    24    1
    34    24    25    1
    35    25    19    1
    36    36    27    1
    37    11     2    1
    38    34    29   ar
    39    11     6   ar
    40    16    17    1
    41    36    37    1
@<TRIPOS>MOLECULE
*****
 37 41 0 0 0
SMALL
GASTEIGER

@<TRIPOS>ATOM
      1 N          -7.1926  -19.2446   22.0939 N.3     1  UNL1       -0.2641
      2 C          -6.0483  -19.7957   21.2958 C.3     1  UNL1        0.0981
      3 C          -6.3098  -20.7602   20.1772 C.3     1  UNL1        0.0224
      4 C          -5.1656  -21.3113   19.3791 C.3     1  UNL1        0.0065
      5 C          -3.7598  -20.8979   19.6997 C.3     1  UNL1        0.0277
      6 C          -3.4982  -19.9334   20.8182 C.ar    1  UNL1       -0.0073
      7 C          -2.0924  -19.5200   21.1388 C.ar    1  UNL1       -0.0015
      8 C          -1.8308  -18.5554   22.2574 C.ar    1  UNL1        0.0203
      9 C          -2.9751  -18.0043   23.0554 C.ar    1  UNL1        0.0985
     10 N          -4.3809  -18.4177   22.7349 N.ar    1  UNL1       -0.2471
     11 C          -4.6425  -19.3823   21.6163 C.ar    1  UNL1        0.0695
     12 C          -8.0519  -20.1661   22.9077 C.3     1  UNL1        0.0989
     13 C         -10.2051  -19.7323   24.2954 C.2     1  UNL1       -0.0122
     14 C          -9.5347  -19.9482   22.9711 C.2     1  UNL1       -0.0120
     15 C         -11.6878  -19.5144   24.3587 C.3     1  UNL1        0.0950
     16 N         -12.2547  -18.1437   24.1353 N.3     1  UNL1       -0.2948
     17 H         -13.2686  -18.2290   24.2070 H       1  UNL1        0.1235
     18 F         -11.9174  -15.8589   18.8905 F       1  UNL1       -0.2043
     19 C         -11.4037  -15.9551   20.2965 C.3     1  UNL1        0.2640
     20 F         -10.4554  -14.9338   19.7421 F       1  UNL1       -0.2043
     21 C         -10.5606  -15.6967   21.5100 C.3     1  UNL1        0.0679
     22 C         -10.8443  -16.4262   22.7896 C.3     1  UNL1        0.0213
     23 C         -11.9710  -17.4142   22.8557 C.3     1  UNL1        0.0546
     24 C         -12.8141  -17.6726   21.6422 C.3     1  UNL1        0.0213
     25 C         -12.5304  -16.9431   20.3627 C.3     1  UNL1        0.0679
     26 C          -7.4775  -17.7720   22.0781 C.3     1  UNL1        0.0888
     27 C          -7.1328  -16.9286   23.2698 C.3     1  UNL1        0.0748
     28 C          -8.0880  -16.8327   24.4223 C.3     1  UNL1        0.0432
     29 C          -7.7433  -15.9893   25.6139 C.ar    1  UNL1       -0.0234
     30 C          -8.6984  -15.8934   26.7665 C.ar    1  UNL1       -0.0045
     31 C          -8.3537  -15.0500   27.9580 C.ar    1  UNL1       -0.0003
     32 C          -7.0538  -14.3026   27.9970 C.ar    1  UNL1       -0.0003
     33 C          -6.0986  -14.3985   26.8445 C.ar    1  UNL1       -0.0032
     34 C          -6.4433  -15.2418   25.6529 C.ar    1  UNL1       -0.0103
     35 C          -5.4881  -15.3378   24.5003 C.3     1  UNL1        0.0953
     36 N          -5.8329  -16.1811   23.3088 N.3     1  UNL1       -0.2934
     37 H          -5.0913  -16.8751   23.2147 H       1  UNL1        0.1236
@<TRIPOS>BOND
     1    18    19    1
     2    19    20    1
     3    19    21    1
     4    21    22    1
     5    22    23    1
     6    23    16    1
     7    16    15    1
     8    15    13    1
     9    13    14    2
    10    14    12    1
    11    12     1    1
    12     1    26    1
    13    27    26    1
    14    27    28    1
    15    28    29    1
    16    29    30   ar
    17    30    31   ar
    18    31    32   ar
    19    32    33   ar
    20    33    34   ar
    21    34    35    1
    22    35    36    1
    23     2     1    1
    24     2     3    1
    25     3     4    1
    26     4     5    1
    27     5     6    1
    28     6     7   ar
    29     7     8   ar
    30     8     9   ar
    31     9    10   ar
    32    10    11   ar
    33    23    24    1
    34    24    25    1
    35    25    19    1
    36    36    27    1
    37    11     2    1
    38    34    29   ar
    39    11     6   ar
    40    16    17    1
    41    36    37    1
@<TRIPOS>MOLECULE
*****
 37 41 0 0 0
SMALL
GASTEIGER

@<TRIPOS>ATOM
      1 N          -5.7606  -18.6593   21.3968 N.3     1  UNL1       -0.2641
      2 C          -4.3429  -18.4255   21.8274 C.3     1  UNL1        0.0981
      3 C          -3.9861  -18.4597   23.2839 C.3     1  UNL1        0.0224
      4 C          -2.5684  -18.2260   23.7146 C.3     1  UNL1        0.0065
      5 C          -1.5074  -17.9581   22.6887 C.3     1  UNL1        0.0277
      6 C          -1.8642  -17.9239   21.2322 C.ar    1  UNL1       -0.0073
      7 C          -0.8032  -17.6559   20.2062 C.ar    1  UNL1       -0.0015
      8 C          -1.1599  -17.6217   18.7497 C.ar    1  UNL1        0.0203
      9 C          -2.5776  -17.8554   18.3190 C.ar    1  UNL1        0.0985
     10 N          -3.6386  -18.1234   19.3449 N.ar    1  UNL1       -0.2471
     11 C          -3.2819  -18.1576   20.8015 C.ar    1  UNL1        0.0695
     12 C          -6.1792  -20.0095   20.8953 C.3     1  UNL1        0.0989
     13 C          -8.2991  -19.6231   19.4439 C.2     1  UNL1       -0.0122
     14 C          -7.6248  -20.2876   20.6074 C.2     1  UNL1       -0.0120
     15 C          -9.7447  -19.9012   19.1560 C.3     1  UNL1        0.0950
     16 N         -10.7791  -18.8487   19.4252 N.3     1  UNL1       -0.2948
     17 H         -10.3607  -17.9533   19.1728 H       1  UNL1        0.1235
     18 F         -12.3711  -18.9846   24.9286 F       1  UNL1       -0.2043
     19 C         -12.4762  -18.3684   23.5651 C.3     1  UNL1        0.2640
     20 F         -13.4481  -17.5071   24.3157 F       1  UNL1       -0.2043
     21 C         -12.9189  -17.4532   22.4622 C.3     1  UNL1        0.0679
     22 C         -12.3532  -17.6133   21.0822 C.3     1  UNL1        0.0213
     23 C         -11.3448  -18.6886   20.8051 C.3     1  UNL1        0.0546
     24 C         -10.9021  -19.6039   21.9080 C.3     1  UNL1        0.0213
     25 C         -11.4678  -19.4438   23.2880 C.3     1  UNL1        0.0679
     26 C          -6.7597  -17.5427   21.4675 C.3     1  UNL1        0.0888
     27 C          -7.2567  -17.0643   22.7996 C.3     1  UNL1        0.0748
     28 C          -6.3227  -16.3636   23.7410 C.3     1  UNL1        0.0432
     29 C          -6.8197  -15.8851   25.0730 C.ar    1  UNL1       -0.0234
     30 C          -5.8856  -15.1844   26.0145 C.ar    1  UNL1       -0.0045
     31 C          -6.3827  -14.7060   27.3464 C.ar    1  UNL1       -0.0003
     32 C          -7.8138  -14.9284   27.7369 C.ar    1  UNL1       -0.0003
     33 C          -8.7478  -15.6292   26.7954 C.ar    1  UNL1       -0.0032
     34 C          -8.2508  -16.1075   25.4635 C.ar    1  UNL1       -0.0103
     35 C          -9.1849  -16.8084   24.5219 C.3     1  UNL1        0.0953
     36 N          -8.6878  -17.2867   23.1900 N.3     1  UNL1       -0.2934
     37 H          -9.2610  -16.8301   22.4805 H       1  UNL1        0.1236
@<TRIPOS>BOND
     1    18    19    1
     2    19    20    1
     3    19    21    1
     4    21    22    1
     5    22    23    1
     6    23    16    1
     7    16    15    1
     8    15    13    1
     9    13    14    2
    10    14    12    1
    11    12     1    1
    12     1    26    1
    13    27    26    1
    14    27    28    1
    15    28    29    1
    16    29    30   ar
    17    30    31   ar
    18    31    32   ar
    19    32    33   ar
    20    33    34   ar
    21    34    35    1
    22    35    36    1
    23     2     1    1
    24     2     3    1
    25     3     4    1
    26     4     5    1
    27     5     6    1
    28     6     7   ar
    29     7     8   ar
    30     8     9   ar
    31     9    10   ar
    32    10    11   ar
    33    23    24    1
    34    24    25    1
    35    25    19    1
    36    36    27    1
    37    11     2    1
    38    34    29   ar
    39    11     6   ar
    40    16    17    1
    41    36    37    1
@<TRIPOS>MOLECULE
*****
 37 41 0 0 0
SMALL
GASTEIGER

@<TRIPOS>ATOM
      1 N          -7.1016  -19.6396   21.4906 N.3     1  UNL1       -0.2641
      2 C          -5.6656  -19.8867   21.1348 C.3     1  UNL1        0.0981
      3 C          -5.3147  -20.9239   20.1096 C.3     1  UNL1        0.0224
      4 C          -3.8787  -21.1711   19.7537 C.3     1  UNL1        0.0065
      5 C          -2.7934  -20.3810   20.4230 C.3     1  UNL1        0.0277
      6 C          -3.1443  -19.3438   21.4482 C.ar    1  UNL1       -0.0073
      7 C          -2.0590  -18.5537   22.1176 C.ar    1  UNL1       -0.0015
      8 C          -2.4099  -17.5165   23.1428 C.ar    1  UNL1        0.0203
      9 C          -3.8460  -17.2693   23.4987 C.ar    1  UNL1        0.0985
     10 N          -4.9312  -18.0594   22.8293 N.ar    1  UNL1       -0.2471
     11 C          -4.5804  -19.0967   21.8041 C.ar    1  UNL1        0.0695
     12 C          -7.8700  -18.5539   20.7972 C.3     1  UNL1        0.0989
     13 C          -8.9525  -16.3000   21.5032 C.2     1  UNL1       -0.0122
     14 C          -7.7295  -17.1302   21.2482 C.2     1  UNL1       -0.0120
     15 C          -8.8120  -14.8764   21.9542 C.3     1  UNL1        0.0950
     16 N          -7.6741  -14.4818   22.8485 N.3     1  UNL1       -0.2948
     17 H          -6.8176  -14.7910   22.3890 H       1  UNL1        0.1235
     18 F          -8.4105  -16.5536   28.1406 F       1  UNL1       -0.2043
     19 C          -7.5029  -16.0080   27.0783 C.3     1  UNL1        0.2640
     20 F          -6.5079  -16.2418   28.1761 F       1  UNL1       -0.2043
     21 C          -6.2497  -15.5436   26.3972 C.3     1  UNL1        0.0679
     22 C          -6.3068  -15.0349   24.9873 C.3     1  UNL1        0.0213
     23 C          -7.6170  -14.9905   24.2584 C.3     1  UNL1        0.0546
     24 C          -8.8702  -15.4549   24.9395 C.3     1  UNL1        0.0213
     25 C          -8.8132  -15.9636   26.3494 C.3     1  UNL1        0.0679
     26 C          -7.7693  -20.4781   22.5399 C.3     1  UNL1        0.0888
     27 C          -9.0562  -20.0198   23.1595 C.3     1  UNL1        0.0748
     28 C         -10.1092  -19.3726   22.3095 C.3     1  UNL1        0.0432
     29 C         -11.3961  -18.9142   22.9291 C.ar    1  UNL1       -0.0234
     30 C         -12.4490  -18.2670   22.0792 C.ar    1  UNL1       -0.0045
     31 C         -13.7358  -17.8087   22.6988 C.ar    1  UNL1       -0.0003
     32 C         -13.9697  -17.9976   24.1684 C.ar    1  UNL1       -0.0003
     33 C         -12.9168  -18.6448   25.0183 C.ar    1  UNL1       -0.0032
     34 C         -11.6300  -19.1031   24.3987 C.ar    1  UNL1       -0.0103
     35 C         -10.5770  -19.7504   25.2487 C.3     1  UNL1        0.0953
     36 N          -9.2902  -20.2087   24.6290 N.3     1  UNL1       -0.2934
     37 H          -9.2147  -21.2091   24.8130 H       1  UNL1        0.1236
@<TRIPOS>BOND
     1    18    19    1
     2    19    20    1
     3    19    21    1
     4    21    22    1
     5    22    23    1
     6    23    16    1
     7    16    15    1
     8    15    13    1
     9    13    14    2
    10    14    12    1
    11    12     1    1
    12     1    26    1
    13    27    26    1
    14    27    28    1
    15    28    29    1
    16    29    30   ar
    17    30    31   ar
    18    31    32   ar
    19    32    33   ar
    20    33    34   ar
    21    34    35    1
    22    35    36    1
    23     2     1    1
    24     2     3    1
    25     3     4    1
    26     4     5    1
    27     5     6    1
    28     6     7   ar
    29     7     8   ar
    30     8     9   ar
    31     9    10   ar
    32    10    11   ar
    33    23    24    1
    34    24    25    1
    35    25    19    1
    36    36    27    1
    37    11     2    1
    38    34    29   ar
    39    11     6   ar
    40    16    17    1
    41    36    37    1
@<TRIPOS>MOLECULE
*****
 37 41 0 0 0
SMALL
GASTEIGER

@<TRIPOS>ATOM
      1 N           7.0962   -3.8018   22.9936 N.3     1  UNL1       -0.2641
      2 C           7.6909   -5.0776   23.5120 C.3     1  UNL1        0.0981
      3 C           8.4197   -5.9987   22.5792 C.3     1  UNL1        0.0224
      4 C           9.0144   -7.2745   23.0976 C.3     1  UNL1        0.0065
      5 C           8.8802   -7.6291   24.5489 C.3     1  UNL1        0.0277
      6 C           8.1514   -6.7080   25.4817 C.ar    1  UNL1       -0.0073
      7 C           8.0171   -7.0626   26.9331 C.ar    1  UNL1       -0.0015
      8 C           7.2883   -6.1415   27.8659 C.ar    1  UNL1        0.0203
      9 C           6.6936   -4.8657   27.3474 C.ar    1  UNL1        0.0985
     10 N           6.8278   -4.5111   25.8962 N.ar    1  UNL1       -0.2471
     11 C           7.5567   -5.4322   24.9633 C.ar    1  UNL1        0.0695
     12 C           7.9828   -2.6318   22.6858 C.3     1  UNL1        0.0989
     13 C           8.1001   -2.8326   20.0981 C.2     1  UNL1       -0.0122
     14 C           7.9368   -1.9921   21.3297 C.2     1  UNL1       -0.0120
     15 C           8.0541   -2.1929   18.7422 C.3     1  UNL1        0.0950
     16 N           6.8533   -2.3831   17.8635 N.3     1  UNL1       -0.2948
     17 H           7.0511   -1.9016   16.9863 H       1  UNL1        0.1235
     18 F           1.5798   -1.4885   19.9204 F       1  UNL1       -0.2043
     19 C           2.8105   -0.9658   19.2405 C.3     1  UNL1        0.2640
     20 F           1.9765    0.2807   19.2639 F       1  UNL1       -0.2043
     21 C           3.7515   -0.0101   18.5688 C.3     1  UNL1        0.0679
     22 C           5.0991   -0.4826   18.1097 C.3     1  UNL1        0.0213
     23 C           5.5057   -1.9107   18.3225 C.3     1  UNL1        0.0546
     24 C           4.5647   -2.8663   18.9942 C.3     1  UNL1        0.0213
     25 C           3.2171   -2.3939   19.4532 C.3     1  UNL1        0.0679
     26 C           5.6148   -3.6961   22.7829 C.3     1  UNL1        0.0888
     27 C           4.8313   -2.6288   23.4879 C.3     1  UNL1        0.0748
     28 C           3.9367   -1.7143   22.7048 C.3     1  UNL1        0.0432
     29 C           3.1531   -0.6469   23.4098 C.ar    1  UNL1       -0.0234
     30 C           2.2585    0.2676   22.6267 C.ar    1  UNL1       -0.0045
     31 C           1.4750    1.3349   23.3317 C.ar    1  UNL1       -0.0003
     32 C           1.5861    1.4876   24.8197 C.ar    1  UNL1       -0.0003
     33 C           2.4808    0.5731   25.6028 C.ar    1  UNL1       -0.0032
     34 C           3.2643   -0.4941   24.8979 C.ar    1  UNL1       -0.0103
     35 C           4.1589   -1.4087   25.6809 C.3     1  UNL1        0.0953
     36 N           4.9424   -2.4760   24.9760 N.3     1  UNL1       -0.2934
     37 H           4.6609   -3.3669   25.3853 H       1  UNL1        0.1236
@<TRIPOS>BOND
     1    18    19    1
     2    19    20    1
     3    19    21    1
     4    21    22    1
     5    22    23    1
     6    23    16    1
     7    16    15    1
     8    15    13    1
     9    13    14    2
    10    14    12    1
    11    12     1    1
    12     1    26    1
    13    27    26    1
    14    27    28    1
    15    28    29    1
    16    29    30   ar
    17    30    31   ar
    18    31    32   ar
    19    32    33   ar
    20    33    34   ar
    21    34    35    1
    22    35    36    1
    23     2     1    1
    24     2     3    1
    25     3     4    1
    26     4     5    1
    27     5     6    1
    28     6     7   ar
    29     7     8   ar
    30     8     9   ar
    31     9    10   ar
    32    10    11   ar
    33    23    24    1
    34    24    25    1
    35    25    19    1
    36    36    27    1
    37    11     2    1
    38    34    29   ar
    39    11     6   ar
    40    16    17    1
    41    36    37    1
@<TRIPOS>MOLECULE
*****
 37 41 0 0 0
SMALL
GASTEIGER

@<TRIPOS>ATOM
      1 N           0.0468    2.3422   20.5583 N.3     1  UNL1       -0.2641
      2 C          -0.6606    3.1667   19.5241 C.3     1  UNL1        0.0981
      3 C           0.1032    3.7284   18.3617 C.3     1  UNL1        0.0224
      4 C          -0.6043    4.5529   17.3274 C.3     1  UNL1        0.0065
      5 C          -2.0754    4.8158   17.4555 C.3     1  UNL1        0.0277
      6 C          -2.8392    4.2541   18.6179 C.ar    1  UNL1       -0.0073
      7 C          -4.3105    4.5169   18.7460 C.ar    1  UNL1       -0.0015
      8 C          -5.0743    3.9552   19.9084 C.ar    1  UNL1        0.0203
      9 C          -4.3668    3.1307   20.9427 C.ar    1  UNL1        0.0985
     10 N          -2.8956    2.8679   20.8146 N.ar    1  UNL1       -0.2471
     11 C          -2.1318    3.4296   19.6521 C.ar    1  UNL1        0.0695
     12 C           0.6150    2.9992   21.7812 C.3     1  UNL1        0.0989
     13 C           1.3381    1.5093   23.7831 C.2     1  UNL1       -0.0122
     14 C           1.6929    2.3144   22.5683 C.2     1  UNL1       -0.0120
     15 C           2.4159    0.8247   24.5701 C.3     1  UNL1        0.0950
     16 N           2.7391   -0.6158   24.3038 N.3     1  UNL1       -0.2948
     17 H           2.9167   -1.0500   25.2095 H       1  UNL1        0.1235
     18 F           7.0582   -2.8721   21.2879 F       1  UNL1       -0.2043
     19 C           6.2083   -1.6892   21.6462 C.3     1  UNL1        0.2640
     20 F           7.1299   -1.0546   20.6473 F       1  UNL1       -0.2043
     21 C           5.6784   -0.2860   21.6576 C.3     1  UNL1        0.0679
     22 C           4.5220    0.0719   22.5435 C.3     1  UNL1        0.0213
     23 C           3.8955   -0.9736   23.4179 C.3     1  UNL1        0.0546
     24 C           4.4255   -2.3768   23.4065 C.3     1  UNL1        0.0213
     25 C           5.5818   -2.7346   22.5207 C.3     1  UNL1        0.0679
     26 C           0.1861    0.8606   20.3697 C.3     1  UNL1        0.0888
     27 C           1.4344    0.2964   19.7586 C.3     1  UNL1        0.0748
     28 C           1.8052   -1.1371   19.9986 C.3     1  UNL1        0.0432
     29 C           3.0535   -1.7013   19.3875 C.ar    1  UNL1       -0.0234
     30 C           3.4243   -3.1348   19.6275 C.ar    1  UNL1       -0.0045
     31 C           4.6725   -3.6990   19.0164 C.ar    1  UNL1       -0.0003
     32 C           5.5500   -2.8297   18.1652 C.ar    1  UNL1       -0.0003
     33 C           5.1792   -1.3962   17.9252 C.ar    1  UNL1       -0.0032
     34 C           3.9309   -0.8321   18.5363 C.ar    1  UNL1       -0.0103
     35 C           3.5601    0.6015   18.2963 C.3     1  UNL1        0.0953
     36 N           2.3118    1.1657   18.9074 N.3     1  UNL1       -0.2934
     37 H           1.7339    1.5035   18.1378 H       1  UNL1        0.1236
@<TRIPOS>BOND
     1    18    19    1
     2    19    20    1
     3    19    21    1
     4    21    22    1
     5    22    23    1
     6    23    16    1
     7    16    15    1
     8    15    13    1
     9    13    14    2
    10    14    12    1
    11    12     1    1
    12     1    26    1
    13    27    26    1
    14    27    28    1
    15    28    29    1
    16    29    30   ar
    17    30    31   ar
    18    31    32   ar
    19    32    33   ar
    20    33    34   ar
    21    34    35    1
    22    35    36    1
    23     2     1    1
    24     2     3    1
    25     3     4    1
    26     4     5    1
    27     5     6    1
    28     6     7   ar
    29     7     8   ar
    30     8     9   ar
    31     9    10   ar
    32    10    11   ar
    33    23    24    1
    34    24    25    1
    35    25    19    1
    36    36    27    1
    37    11     2    1
    38    34    29   ar
    39    11     6   ar
    40    16    17    1
    41    36    37    1
@<TRIPOS>MOLECULE
*****
 37 41 0 0 0
SMALL
GASTEIGER

@<TRIPOS>ATOM
      1 N           6.7876   -2.4796   26.4618 N.3     1  UNL1       -0.2641
      2 C           6.9592   -3.6984   27.3191 C.3     1  UNL1        0.0981
      3 C           6.7633   -3.6051   28.8033 C.3     1  UNL1        0.0224
      4 C           6.9349   -4.8240   29.6606 C.3     1  UNL1        0.0065
      5 C           7.3024   -6.1362   29.0337 C.3     1  UNL1        0.0277
      6 C           7.4984   -6.2295   27.5495 C.ar    1  UNL1       -0.0073
      7 C           7.8660   -7.5417   26.9225 C.ar    1  UNL1       -0.0015
      8 C           8.0619   -7.6350   25.4383 C.ar    1  UNL1        0.0203
      9 C           7.8903   -6.4162   24.5810 C.ar    1  UNL1        0.0985
     10 N           7.5228   -5.1040   25.2079 N.ar    1  UNL1       -0.2471
     11 C           7.3268   -5.0106   26.6922 C.ar    1  UNL1        0.0695
     12 C           7.9838   -1.6640   26.0697 C.3     1  UNL1        0.0989
     13 C           8.2519   -0.9947   23.5736 C.2     1  UNL1       -0.0122
     14 C           8.6274   -1.8721   24.7308 C.2     1  UNL1       -0.0120
     15 C           8.8954   -1.2029   22.2348 C.3     1  UNL1        0.0950
     16 N           8.2149   -2.0477   21.1988 N.3     1  UNL1       -0.2948
     17 H           8.9510   -2.5219   20.6756 H       1  UNL1        0.1235
     18 F           4.6016    1.0622   18.0185 F       1  UNL1       -0.2043
     19 C           5.4938   -0.1343   18.1682 C.3     1  UNL1        0.2640
     20 F           4.9964   -0.3536   16.7702 F       1  UNL1       -0.2043
     21 C           6.2132   -1.4069   17.8323 C.3     1  UNL1        0.0679
     22 C           7.1203   -2.0447   18.8425 C.3     1  UNL1        0.0213
     23 C           7.3079   -1.4099   20.1886 C.3     1  UNL1        0.0546
     24 C           6.5884   -0.1372   20.5244 C.3     1  UNL1        0.0213
     25 C           5.6814    0.5006   19.5142 C.3     1  UNL1        0.0679
     26 C           5.4198   -2.0763   25.9967 C.3     1  UNL1        0.0888
     27 C           5.0138   -2.3077   24.5712 C.3     1  UNL1        0.0748
     28 C           4.0961   -1.3391   23.8861 C.3     1  UNL1        0.0432
     29 C           3.6901   -1.5705   22.4607 C.ar    1  UNL1       -0.0234
     30 C           2.7724   -0.6019   21.7755 C.ar    1  UNL1       -0.0045
     31 C           2.3665   -0.8333   20.3502 C.ar    1  UNL1       -0.0003
     32 C           2.8783   -2.0334   19.6100 C.ar    1  UNL1       -0.0003
     33 C           3.7960   -3.0020   20.2952 C.ar    1  UNL1       -0.0032
     34 C           4.2019   -2.7706   21.7205 C.ar    1  UNL1       -0.0103
     35 C           5.1197   -3.7393   22.4057 C.3     1  UNL1        0.0953
     36 N           5.5256   -3.5078   23.8311 N.3     1  UNL1       -0.2934
     37 H           6.5438   -3.4479   23.8412 H       1  UNL1        0.1236
@<TRIPOS>BOND
     1    18    19    1
     2    19    20    1
     3    19    21    1
     4    21    22    1
     5    22    23    1
     6    23    16    1
     7    16    15    1
     8    15    13    1
     9    13    14    2
    10    14    12    1
    11    12     1    1
    12     1    26    1
    13    27    26    1
    14    27    28    1
    15    28    29    1
    16    29    30   ar
    17    30    31   ar
    18    31    32   ar
    19    32    33   ar
    20    33    34   ar
    21    34    35    1
    22    35    36    1
    23     2     1    1
    24     2     3    1
    25     3     4    1
    26     4     5    1
    27     5     6    1
    28     6     7   ar
    29     7     8   ar
    30     8     9   ar
    31     9    10   ar
    32    10    11   ar
    33    23    24    1
    34    24    25    1
    35    25    19    1
    36    36    27    1
    37    11     2    1
    38    34    29   ar
    39    11     6   ar
    40    16    17    1
    41    36    37    1
