@<TRIPOS>MOLECULE
*****
 39 42 0 0 0
SMALL
GASTEIGER

@<TRIPOS>ATOM
      1 C           8.2064   -5.4042   29.3470 C.ar    1  UNL1        0.1353
      2 N           9.4506   -5.2529   30.1711 N.ar    1  UNL1       -0.2279
      3 C           9.1469   -4.3141   31.3009 C.ar    1  UNL1        0.1171
      4 C           7.7150   -3.8852   31.1750 C.ar    1  UNL1        0.0769
      5 N           7.1338   -4.5589   29.9674 N.ar    1  UNL1       -0.3394
      6 H           6.2104   -4.4632   29.6396 H       1  UNL1        0.1671
      7 C           7.4833   -4.3311   26.3512 C.2     1  UNL1        0.2439
      8 O           7.5626   -3.2471   27.3848 O.2     1  UNL1       -0.2731
      9 N           7.7282   -5.7587   26.7412 N.am    1  UNL1       -0.2730
     10 C           7.6836   -6.9437   25.8226 C.3     1  UNL1        0.0939
     11 C           7.9885   -8.1693   26.6319 C.3     1  UNL1        0.0237
     12 C           8.2214   -7.7417   28.0506 C.3     1  UNL1        0.0293
     13 C           8.0605   -6.2520   28.1182 C.3     1  UNL1        0.1319
     14 C           7.1591   -3.9877   24.9274 C.3     1  UNL1        0.1512
     15 C           5.3532   -2.1677   24.5074 C.2     1  UNL1        0.4021
     16 O           6.3499   -1.0999   24.8484 O.2     1  UNL1       -0.2264
     17 N           5.7578   -3.6116   24.5470 N.am    1  UNL1       -0.2640
     18 H           5.1036   -4.3125   24.3232 H       1  UNL1        0.1532
     19 C           3.6268   -1.4526   22.7024 C.3     1  UNL1        0.2573
     20 O           3.9518   -1.7918   24.1269 O.3     1  UNL1       -0.4306
     21 C           8.2364   -4.0202   23.8842 C.3     1  UNL1        0.0270
     22 C           8.0757   -4.8816   22.6667 C.3     1  UNL1        0.0022
     23 C           9.4745   -3.1915   24.0583 C.3     1  UNL1        0.0022
     24 C           6.9914   -2.9472   32.0952 C.ar    1  UNL1        0.0172
     25 C           7.7123   -1.7728   32.6876 C.ar    1  UNL1        0.0015
     26 C           6.9886   -0.8349   33.6077 C.ar    1  UNL1        0.0000
     27 C           5.5441   -1.0714   33.9354 C.ar    1  UNL1        0.0000
     28 C           4.8232   -2.2459   33.3430 C.ar    1  UNL1        0.0000
     29 C           5.5469   -3.1838   32.4229 C.ar    1  UNL1        0.0015
     30 C           4.8205   -0.1335   34.8556 C.ar    1  UNL1       -0.0000
     31 C           3.9425    0.9433   34.2902 C.ar    1  UNL1       -0.0001
     32 C           3.2188    1.8812   35.2104 C.ar    1  UNL1        0.0039
     33 C           3.3732    1.7424   36.6959 C.ar    1  UNL1        0.0714
     34 C           4.2513    0.6656   37.2613 C.ar    1  UNL1        0.0039
     35 C           4.9749   -0.2723   36.3412 C.ar    1  UNL1       -0.0001
     36 C           2.6497    2.6803   37.6161 C.3     1  UNL1        0.4186
     37 F           1.9261    3.6182   38.5362 F       1  UNL1       -0.1659
     38 F           3.3023    2.0251   38.7971 F       1  UNL1       -0.1659
     39 F           1.9971    3.3355   36.4351 F       1  UNL1       -0.1659
@<TRIPOS>BOND
     1    19    20    1
     2    20    15    1
     3    15    16    2
     4    15    17   am
     5    14    17    1
     6    14     7    1
     7     7     8    2
     8     7     9   am
     9     9    10    1
    10    10    11    1
    11    11    12    1
    12    12    13    1
    13    13     1    1
    14     1     2   ar
    15     2     3   ar
    16     3     4   ar
    17     4    24    1
    18    24    25   ar
    19    25    26   ar
    20    26    27   ar
    21    27    30    1
    22    30    31   ar
    23    31    32   ar
    24    32    33   ar
    25    33    36    1
    26    36    37    1
    27    36    38    1
    28    36    39    1
    29    33    34   ar
    30    34    35   ar
    31    27    28   ar
    32    28    29   ar
    33     4     5   ar
    34    14    21    1
    35    21    22    1
    36    21    23    1
    37    13     9    1
    38     5     1   ar
    39    29    24   ar
    40    35    30   ar
    41    17    18    1
    42     5     6    1
@<TRIPOS>MOLECULE
*****
 39 42 0 0 0
SMALL
GASTEIGER

@<TRIPOS>ATOM
      1 C           7.7050   -5.0567   24.4503 C.ar    1  UNL1        0.1353
      2 N           7.3071   -6.3859   25.0204 N.ar    1  UNL1       -0.2279
      3 C           6.9100   -6.1763   26.4516 C.ar    1  UNL1        0.1171
      4 C           7.0625   -4.7177   26.7661 C.ar    1  UNL1        0.0769
      5 N           7.5539   -4.0257   25.5293 N.ar    1  UNL1       -0.3394
      6 H           7.7438   -3.0637   25.4411 H       1  UNL1        0.1671
      7 C           6.0558   -3.4448   22.1415 C.2     1  UNL1        0.2439
      8 O           5.3335   -3.5407   23.4526 O.2     1  UNL1       -0.2731
      9 N           7.4140   -4.0622   21.9864 N.am    1  UNL1       -0.2730
     10 C           8.2526   -4.0470   20.7428 C.3     1  UNL1        0.0939
     11 C           9.5289   -4.7786   21.0355 C.3     1  UNL1        0.0237
     12 C           9.4792   -5.2459   22.4600 C.3     1  UNL1        0.0293
     13 C           8.1721   -4.8031   23.0476 C.3     1  UNL1        0.1319
     14 C           5.4198   -2.7314   20.9853 C.3     1  UNL1        0.1512
     15 C           4.1271   -0.5136   21.3860 C.2     1  UNL1        0.4021
     16 O           2.9264   -1.2941   21.8324 O.2     1  UNL1       -0.2264
     17 N           5.3737   -1.2323   20.9624 N.am    1  UNL1       -0.2640
     18 H           6.1618   -0.7200   20.6694 H       1  UNL1        0.1532
     19 C           3.9106    1.7108   20.0612 C.3     1  UNL1        0.2573
     20 O           4.0811    0.9854   21.3631 O.3     1  UNL1       -0.4306
     21 C           4.8298   -3.5172   19.8520 C.3     1  UNL1        0.0270
     22 C           5.1605   -3.1533   18.4349 C.3     1  UNL1        0.0022
     23 C           3.9092   -4.6670   20.1357 C.3     1  UNL1        0.0022
     24 C           6.7743   -4.0654   28.0858 C.ar    1  UNL1        0.0172
     25 C           7.0299   -4.8104   29.3624 C.ar    1  UNL1        0.0015
     26 C           6.7416   -4.1582   30.6820 C.ar    1  UNL1        0.0000
     27 C           6.1979   -2.7608   30.7250 C.ar    1  UNL1        0.0000
     28 C           5.9424   -2.0158   29.4485 C.ar    1  UNL1        0.0000
     29 C           6.2306   -2.6681   28.1289 C.ar    1  UNL1        0.0015
     30 C           5.9097   -2.1086   32.0448 C.ar    1  UNL1       -0.0000
     31 C           6.9566   -1.2639   32.7084 C.ar    1  UNL1       -0.0001
     32 C           6.6684   -0.6116   34.0281 C.ar    1  UNL1        0.0039
     33 C           5.3332   -0.8041   34.6841 C.ar    1  UNL1        0.0714
     34 C           4.2863   -1.6488   34.0204 C.ar    1  UNL1        0.0039
     35 C           4.5746   -2.3010   32.7008 C.ar    1  UNL1       -0.0001
     36 C           5.0450   -0.1519   36.0037 C.3     1  UNL1        0.4186
     37 F           4.7568    0.5004   37.3234 F       1  UNL1       -0.1659
     38 F           6.2199   -0.8601   36.6104 F       1  UNL1       -0.1659
     39 F           3.8701    0.5564   35.3971 F       1  UNL1       -0.1659
@<TRIPOS>BOND
     1    19    20    1
     2    20    15    1
     3    15    16    2
     4    15    17   am
     5    14    17    1
     6    14     7    1
     7     7     8    2
     8     7     9   am
     9     9    10    1
    10    10    11    1
    11    11    12    1
    12    12    13    1
    13    13     1    1
    14     1     2   ar
    15     2     3   ar
    16     3     4   ar
    17     4    24    1
    18    24    25   ar
    19    25    26   ar
    20    26    27   ar
    21    27    30    1
    22    30    31   ar
    23    31    32   ar
    24    32    33   ar
    25    33    36    1
    26    36    37    1
    27    36    38    1
    28    36    39    1
    29    33    34   ar
    30    34    35   ar
    31    27    28   ar
    32    28    29   ar
    33     4     5   ar
    34    14    21    1
    35    21    22    1
    36    21    23    1
    37    13     9    1
    38     5     1   ar
    39    29    24   ar
    40    35    30   ar
    41    17    18    1
    42     5     6    1
@<TRIPOS>MOLECULE
*****
 39 42 0 0 0
SMALL
GASTEIGER

@<TRIPOS>ATOM
      1 C           1.1933    1.4467   30.5093 C.ar    1  UNL1        0.1353
      2 N          -0.2544    1.2005   30.2034 N.ar    1  UNL1       -0.2279
      3 C          -0.3785    0.9336   28.7325 C.ar    1  UNL1        0.1171
      4 C           0.9925    1.0149   28.1294 C.ar    1  UNL1        0.0769
      5 N           1.9639    1.3320   29.2275 N.ar    1  UNL1       -0.3394
      6 H           2.9365    1.4450   29.1249 H       1  UNL1        0.1671
      7 C           3.4494   -0.3138   32.0776 C.2     1  UNL1        0.2439
      8 O           3.0656   -0.8685   30.7379 O.2     1  UNL1       -0.2731
      9 N           2.8063    0.9444   32.5807 N.am    1  UNL1       -0.2730
     10 C           3.0872    1.6144   33.8931 C.3     1  UNL1        0.0939
     11 C           2.2239    2.8377   33.9832 C.3     1  UNL1        0.0237
     12 C           1.4093    2.9238   32.7266 C.3     1  UNL1        0.0293
     13 C           1.7693    1.7537   31.8599 C.3     1  UNL1        0.1319
     14 C           4.4764   -1.0175   32.9144 C.3     1  UNL1        0.1512
     15 C           5.3470   -0.3942   35.2816 C.2     1  UNL1        0.4021
     16 O           6.5164    0.3146   34.6650 O.2     1  UNL1       -0.2264
     17 N           4.3271   -1.0603   34.4064 N.am    1  UNL1       -0.2640
     18 H           3.5596   -1.5255   34.8111 H       1  UNL1        0.1532
     19 C           4.4821    0.6711   37.4878 C.3     1  UNL1        0.2573
     20 O           5.1976   -0.4371   36.7735 O.3     1  UNL1       -0.4306
     21 C           5.6529   -1.6783   32.2592 C.3     1  UNL1        0.0270
     22 C           5.9540   -3.1211   32.5381 C.3     1  UNL1        0.0022
     23 C           6.5282   -0.8965   31.3251 C.3     1  UNL1        0.0022
     24 C           1.3324    0.8144   26.6822 C.ar    1  UNL1        0.0172
     25 C           0.3691    1.2499   25.6182 C.ar    1  UNL1        0.0015
     26 C           0.7090    1.0494   24.1711 C.ar    1  UNL1        0.0000
     27 C           2.0123    0.4132   23.7880 C.ar    1  UNL1        0.0000
     28 C           2.9757   -0.0223   24.8520 C.ar    1  UNL1        0.0000
     29 C           2.6357    0.1782   26.2991 C.ar    1  UNL1        0.0015
     30 C           2.3522    0.2127   22.3408 C.ar    1  UNL1       -0.0000
     31 C           2.9727   -1.0756   21.8877 C.ar    1  UNL1       -0.0001
     32 C           3.3127   -1.2762   20.4405 C.ar    1  UNL1        0.0039
     33 C           3.0321   -0.1884   19.4465 C.ar    1  UNL1        0.0714
     34 C           2.4115    1.0999   19.8997 C.ar    1  UNL1        0.0039
     35 C           2.0716    1.3004   21.3468 C.ar    1  UNL1       -0.0001
     36 C           3.3720   -0.3889   17.9994 C.3     1  UNL1        0.4186
     37 F           3.7119   -0.5894   16.5522 F       1  UNL1       -0.1659
     38 F           2.2110    0.4760   17.6069 F       1  UNL1       -0.1659
     39 F           4.5329   -1.2539   18.3919 F       1  UNL1       -0.1659
@<TRIPOS>BOND
     1    19    20    1
     2    20    15    1
     3    15    16    2
     4    15    17   am
     5    14    17    1
     6    14     7    1
     7     7     8    2
     8     7     9   am
     9     9    10    1
    10    10    11    1
    11    11    12    1
    12    12    13    1
    13    13     1    1
    14     1     2   ar
    15     2     3   ar
    16     3     4   ar
    17     4    24    1
    18    24    25   ar
    19    25    26   ar
    20    26    27   ar
    21    27    30    1
    22    30    31   ar
    23    31    32   ar
    24    32    33   ar
    25    33    36    1
    26    36    37    1
    27    36    38    1
    28    36    39    1
    29    33    34   ar
    30    34    35   ar
    31    27    28   ar
    32    28    29   ar
    33     4     5   ar
    34    14    21    1
    35    21    22    1
    36    21    23    1
    37    13     9    1
    38     5     1   ar
    39    29    24   ar
    40    35    30   ar
    41    17    18    1
    42     5     6    1
@<TRIPOS>MOLECULE
*****
 39 42 0 0 0
SMALL
GASTEIGER

@<TRIPOS>ATOM
      1 C           7.6791   -5.1378   24.4842 C.ar    1  UNL1        0.1353
      2 N           7.3015   -6.4621   25.0791 N.ar    1  UNL1       -0.2279
      3 C           6.9195   -6.2348   26.5117 C.ar    1  UNL1        0.1171
      4 C           7.0608   -4.7700   26.8023 C.ar    1  UNL1        0.0769
      5 N           7.5303   -4.0921   25.5492 N.ar    1  UNL1       -0.3394
      6 H           7.7093   -3.1297   25.4443 H       1  UNL1        0.1671
      7 C           6.0961   -3.3748   22.2404 C.2     1  UNL1        0.2439
      8 O           5.4035   -3.4340   23.5696 O.2     1  UNL1       -0.2731
      9 N           7.3991   -4.0906   22.0410 N.am    1  UNL1       -0.2730
     10 C           8.2033   -4.1216   20.7752 C.3     1  UNL1        0.0939
     11 C           9.4280   -4.9512   21.0243 C.3     1  UNL1        0.0237
     12 C           9.3806   -5.4328   22.4440 C.3     1  UNL1        0.0293
     13 C           8.1268   -4.9009   23.0724 C.3     1  UNL1        0.1319
     14 C           5.4856   -2.5998   21.1104 C.3     1  UNL1        0.1512
     15 C           6.6455   -1.1759   19.2727 C.2     1  UNL1        0.4021
     16 O           6.5661   -2.3353   18.3243 O.2     1  UNL1       -0.2264
     17 N           6.1053   -1.3082   20.6658 N.am    1  UNL1       -0.2640
     18 H           6.1574   -0.5472   21.2882 H       1  UNL1        0.1532
     19 C           7.0959    0.5805   17.4120 C.3     1  UNL1        0.2573
     20 O           7.2651    0.1157   18.8281 O.3     1  UNL1       -0.4306
     21 C           4.2554   -3.1165   20.4251 C.3     1  UNL1        0.0270
     22 C           3.1706   -2.1656   20.0140 C.3     1  UNL1        0.0022
     23 C           4.1099   -4.5841   20.1510 C.3     1  UNL1        0.0022
     24 C           6.7817   -4.1006   28.1153 C.ar    1  UNL1        0.0172
     25 C           6.2897   -2.6840   28.1454 C.ar    1  UNL1        0.0015
     26 C           6.0107   -2.0147   29.4584 C.ar    1  UNL1        0.0000
     27 C           6.2236   -2.7621   30.7414 C.ar    1  UNL1        0.0000
     28 C           6.7156   -4.1787   30.7114 C.ar    1  UNL1        0.0000
     29 C           6.9946   -4.8480   29.3983 C.ar    1  UNL1        0.0015
     30 C           5.9445   -2.0927   32.0545 C.ar    1  UNL1       -0.0000
     31 C           4.6290   -2.3089   32.7419 C.ar    1  UNL1       -0.0001
     32 C           4.3499   -1.6395   34.0550 C.ar    1  UNL1        0.0039
     33 C           5.3864   -0.7539   34.6806 C.ar    1  UNL1        0.0714
     34 C           6.7020   -0.5377   33.9931 C.ar    1  UNL1        0.0039
     35 C           6.9810   -1.2071   32.6801 C.ar    1  UNL1       -0.0001
     36 C           5.1073   -0.0846   35.9936 C.3     1  UNL1        0.4186
     37 F           4.8283    0.5848   37.3066 F       1  UNL1       -0.1659
     38 F           3.9232    0.6092   35.3883 F       1  UNL1       -0.1659
     39 F           6.2915   -0.7783   36.5989 F       1  UNL1       -0.1659
@<TRIPOS>BOND
     1    19    20    1
     2    20    15    1
     3    15    16    2
     4    15    17   am
     5    14    17    1
     6    14     7    1
     7     7     8    2
     8     7     9   am
     9     9    10    1
    10    10    11    1
    11    11    12    1
    12    12    13    1
    13    13     1    1
    14     1     2   ar
    15     2     3   ar
    16     3     4   ar
    17     4    24    1
    18    24    25   ar
    19    25    26   ar
    20    26    27   ar
    21    27    30    1
    22    30    31   ar
    23    31    32   ar
    24    32    33   ar
    25    33    36    1
    26    36    37    1
    27    36    38    1
    28    36    39    1
    29    33    34   ar
    30    34    35   ar
    31    27    28   ar
    32    28    29   ar
    33     4     5   ar
    34    14    21    1
    35    21    22    1
    36    21    23    1
    37    13     9    1
    38     5     1   ar
    39    29    24   ar
    40    35    30   ar
    41    17    18    1
    42     5     6    1
@<TRIPOS>MOLECULE
*****
 39 42 0 0 0
SMALL
GASTEIGER

@<TRIPOS>ATOM
      1 C           5.3934   -3.7927   22.2116 C.ar    1  UNL1        0.1353
      2 N           6.8132   -4.2540   22.3581 N.ar    1  UNL1       -0.2279
      3 C           7.2291   -4.0292   23.7816 C.ar    1  UNL1        0.1171
      4 C           6.0663   -3.4291   24.5150 C.ar    1  UNL1        0.0769
      5 N           4.9318   -3.2829   23.5446 N.ar    1  UNL1       -0.3394
      6 H           4.0407   -2.9167   23.7472 H       1  UNL1        0.1671
      7 C           4.4354   -1.2106   20.4612 C.2     1  UNL1        0.2439
      8 O           5.2426   -0.8589   21.6755 O.2     1  UNL1       -0.2731
      9 N           4.1380   -2.6472   20.1485 N.am    1  UNL1       -0.2730
     10 C           3.3480   -3.1491   18.9763 C.3     1  UNL1        0.0939
     11 C           3.3001   -4.6462   19.0565 C.3     1  UNL1        0.0237
     12 C           4.0605   -5.0695   20.2782 C.3     1  UNL1        0.0293
     13 C           4.5783   -3.8341   20.9531 C.3     1  UNL1        0.1319
     14 C           3.9256   -0.1257   19.5594 C.3     1  UNL1        0.1512
     15 C           5.0855    0.1463   17.2506 C.2     1  UNL1        0.4021
     16 O           4.3472   -1.0548   16.7382 O.2     1  UNL1       -0.2264
     17 N           4.8746    0.6108   18.6612 N.am    1  UNL1       -0.2640
     18 H           5.3592    1.3991   18.9974 H       1  UNL1        0.1532
     19 C           7.4397    1.1502   16.8040 C.3     1  UNL1        0.2573
     20 O           6.0345    0.8828   16.3524 O.3     1  UNL1       -0.4306
     21 C           2.4666    0.2226   19.5559 C.3     1  UNL1        0.0270
     22 C           1.5896   -0.2094   20.6936 C.3     1  UNL1        0.0022
     23 C           1.8845    1.0031   18.4147 C.3     1  UNL1        0.0022
     24 C           6.0423   -3.0429   25.9643 C.ar    1  UNL1        0.0172
     25 C           6.7337   -3.9020   26.9810 C.ar    1  UNL1        0.0015
     26 C           6.7096   -3.5158   28.4302 C.ar    1  UNL1        0.0000
     27 C           5.9941   -2.2704   28.8626 C.ar    1  UNL1        0.0000
     28 C           5.3027   -1.4113   27.8459 C.ar    1  UNL1        0.0000
     29 C           5.3268   -1.7975   26.3967 C.ar    1  UNL1        0.0015
     30 C           5.9700   -1.8842   30.3119 C.ar    1  UNL1       -0.0000
     31 C           6.0485   -2.9429   31.3716 C.ar    1  UNL1       -0.0001
     32 C           6.0244   -2.5567   32.8209 C.ar    1  UNL1        0.0039
     33 C           5.9218   -1.1118   33.2104 C.ar    1  UNL1        0.0714
     34 C           5.8434   -0.0531   32.1506 C.ar    1  UNL1        0.0039
     35 C           5.8675   -0.4393   30.7014 C.ar    1  UNL1       -0.0001
     36 C           5.8978   -0.7256   34.6596 C.3     1  UNL1        0.4186
     37 F           5.8737   -0.3393   36.1088 F       1  UNL1       -0.1659
     38 F           7.3108   -0.2338   34.5520 F       1  UNL1       -0.1659
     39 F           4.4848   -1.2173   34.7672 F       1  UNL1       -0.1659
@<TRIPOS>BOND
     1    19    20    1
     2    20    15    1
     3    15    16    2
     4    15    17   am
     5    14    17    1
     6    14     7    1
     7     7     8    2
     8     7     9   am
     9     9    10    1
    10    10    11    1
    11    11    12    1
    12    12    13    1
    13    13     1    1
    14     1     2   ar
    15     2     3   ar
    16     3     4   ar
    17     4    24    1
    18    24    25   ar
    19    25    26   ar
    20    26    27   ar
    21    27    30    1
    22    30    31   ar
    23    31    32   ar
    24    32    33   ar
    25    33    36    1
    26    36    37    1
    27    36    38    1
    28    36    39    1
    29    33    34   ar
    30    34    35   ar
    31    27    28   ar
    32    28    29   ar
    33     4     5   ar
    34    14    21    1
    35    21    22    1
    36    21    23    1
    37    13     9    1
    38     5     1   ar
    39    29    24   ar
    40    35    30   ar
    41    17    18    1
    42     5     6    1
@<TRIPOS>MOLECULE
*****
 39 42 0 0 0
SMALL
GASTEIGER

@<TRIPOS>ATOM
      1 C         -16.8330    3.7564   18.9960 C.ar    1  UNL1        0.1353
      2 N         -15.8082    4.3139   18.0530 N.ar    1  UNL1       -0.2279
      3 C         -14.7740    3.2543   17.8131 C.ar    1  UNL1        0.1171
      4 C         -15.1595    2.0419   18.6077 C.ar    1  UNL1        0.0769
      5 N         -16.4320    2.3523   19.3388 N.ar    1  UNL1       -0.3394
      6 H         -16.9187    1.7415   19.9383 H       1  UNL1        0.1671
      7 C         -17.4947    4.4216   22.1214 C.2     1  UNL1        0.2439
      8 O         -16.2035    3.6870   21.9143 O.2     1  UNL1       -0.2731
      9 N         -18.3498    4.7824   20.9431 N.am    1  UNL1       -0.2730
     10 C         -19.6593    5.5123   20.9944 C.3     1  UNL1        0.0939
     11 C         -20.1643    5.6576   19.5895 C.3     1  UNL1        0.0237
     12 C         -19.1671    5.0175   18.6699 C.3     1  UNL1        0.0293
     13 C         -18.0457    4.4767   19.5064 C.3     1  UNL1        0.1319
     14 C         -17.9309    4.7956   23.5071 C.3     1  UNL1        0.1512
     15 C         -16.2973    6.1416   25.0135 C.2     1  UNL1        0.4021
     16 O         -15.5439    4.8818   25.3222 O.2     1  UNL1       -0.2264
     17 N         -17.4908    6.0985   24.1060 N.am    1  UNL1       -0.2640
     18 H         -17.9853    6.9254   23.9034 H       1  UNL1        0.1532
     19 C         -15.5898    7.5407   27.0853 C.3     1  UNL1        0.2573
     20 O         -15.8572    7.4445   25.6124 O.3     1  UNL1       -0.4306
     21 C         -18.8073    3.8666   24.2938 C.3     1  UNL1        0.0270
     22 C         -18.8386    2.4041   23.9619 C.3     1  UNL1        0.0022
     23 C         -19.6524    4.4000   25.4125 C.3     1  UNL1        0.0022
     24 C         -14.4050    0.7466   18.6618 C.ar    1  UNL1        0.0172
     25 C         -12.9573    0.7050   18.2717 C.ar    1  UNL1        0.0015
     26 C         -12.2029   -0.5903   18.3258 C.ar    1  UNL1        0.0000
     27 C         -12.8962   -1.8441   18.7701 C.ar    1  UNL1        0.0000
     28 C         -14.3439   -1.8025   19.1603 C.ar    1  UNL1        0.0000
     29 C         -15.0983   -0.5072   19.1061 C.ar    1  UNL1        0.0015
     30 C         -12.1417   -3.1394   18.8242 C.ar    1  UNL1       -0.0000
     31 C         -12.8566   -4.4095   19.1788 C.ar    1  UNL1       -0.0001
     32 C         -12.1021   -5.7049   19.2329 C.ar    1  UNL1        0.0039
     33 C         -10.6327   -5.7300   18.9324 C.ar    1  UNL1        0.0714
     34 C          -9.9178   -4.4599   18.5778 C.ar    1  UNL1        0.0039
     35 C         -10.6723   -3.1646   18.5237 C.ar    1  UNL1       -0.0001
     36 C          -9.8782   -7.0253   18.9865 C.3     1  UNL1        0.4186
     37 F          -9.1237   -8.3206   19.0406 F       1  UNL1       -0.1659
     38 F          -8.8836   -6.4068   19.9237 F       1  UNL1       -0.1659
     39 F         -10.8728   -7.6438   18.0494 F       1  UNL1       -0.1659
@<TRIPOS>BOND
     1    19    20    1
     2    20    15    1
     3    15    16    2
     4    15    17   am
     5    14    17    1
     6    14     7    1
     7     7     8    2
     8     7     9   am
     9     9    10    1
    10    10    11    1
    11    11    12    1
    12    12    13    1
    13    13     1    1
    14     1     2   ar
    15     2     3   ar
    16     3     4   ar
    17     4    24    1
    18    24    25   ar
    19    25    26   ar
    20    26    27   ar
    21    27    30    1
    22    30    31   ar
    23    31    32   ar
    24    32    33   ar
    25    33    36    1
    26    36    37    1
    27    36    38    1
    28    36    39    1
    29    33    34   ar
    30    34    35   ar
    31    27    28   ar
    32    28    29   ar
    33     4     5   ar
    34    14    21    1
    35    21    22    1
    36    21    23    1
    37    13     9    1
    38     5     1   ar
    39    29    24   ar
    40    35    30   ar
    41    17    18    1
    42     5     6    1
@<TRIPOS>MOLECULE
*****
 39 42 0 0 0
SMALL
GASTEIGER

@<TRIPOS>ATOM
      1 C           3.7406    0.7558   32.1831 C.ar    1  UNL1        0.1353
      2 N           3.5138   -0.6362   31.6720 N.ar    1  UNL1       -0.2279
      3 C           2.5157   -0.5629   30.5547 C.ar    1  UNL1        0.1171
      4 C           2.1256    0.8743   30.3752 C.ar    1  UNL1        0.0769
      5 N           2.8826    1.6893   31.3816 N.ar    1  UNL1       -0.3394
      6 H           2.8263    2.6655   31.4960 H       1  UNL1        0.1671
      7 C           2.8790    2.2653   34.9450 C.2     1  UNL1        0.2439
      8 O           1.7353    2.0034   34.0106 O.2     1  UNL1       -0.2731
      9 N           4.2673    1.8395   34.5690 N.am    1  UNL1       -0.2730
     10 C           5.5033    2.0329   35.3966 C.3     1  UNL1        0.0939
     11 C           6.6633    1.4585   34.6386 C.3     1  UNL1        0.0237
     12 C           6.1441    0.9102   33.3425 C.3     1  UNL1        0.0293
     13 C           4.6634    1.1457   33.2995 C.3     1  UNL1        0.1319
     14 C           2.6345    2.9530   36.2554 C.3     1  UNL1        0.1512
     15 C           3.0425    1.5772   38.4212 C.2     1  UNL1        0.4021
     16 O           4.5227    1.7543   38.2549 O.2     1  UNL1       -0.2264
     17 N           2.0984    2.1766   37.4215 N.am    1  UNL1       -0.2640
     18 H           1.1269    2.0604   37.5307 H       1  UNL1        0.1532
     19 C           1.1938    0.0839   39.4711 C.3     1  UNL1        0.2573
     20 O           2.5063    0.8008   39.5872 O.3     1  UNL1       -0.4306
     21 C           2.9262    4.4173   36.3998 C.3     1  UNL1        0.0270
     22 C           4.1957    4.8677   37.0598 C.3     1  UNL1        0.0022
     23 C           1.9484    5.4313   35.8842 C.3     1  UNL1        0.0022
     24 C           1.1497    1.4037   29.3665 C.ar    1  UNL1        0.0172
     25 C           0.1482    0.4819   28.7364 C.ar    1  UNL1        0.0015
     26 C          -0.8276    1.0113   27.7277 C.ar    1  UNL1        0.0000
     27 C          -0.8018    2.4625   27.3490 C.ar    1  UNL1        0.0000
     28 C           0.1998    3.3843   27.9791 C.ar    1  UNL1        0.0000
     29 C           1.1756    2.8549   28.9878 C.ar    1  UNL1        0.0015
     30 C          -1.7777    2.9919   26.3403 C.ar    1  UNL1       -0.0000
     31 C          -3.1281    3.4716   26.7831 C.ar    1  UNL1       -0.0001
     32 C          -4.1039    4.0010   25.7743 C.ar    1  UNL1        0.0039
     33 C          -3.7293    4.0506   24.3227 C.ar    1  UNL1        0.0714
     34 C          -2.3788    3.5708   23.8799 C.ar    1  UNL1        0.0039
     35 C          -1.4030    3.0415   24.8886 C.ar    1  UNL1       -0.0001
     36 C          -4.7050    4.5799   23.3140 C.3     1  UNL1        0.4186
     37 F          -5.6808    5.1093   22.3052 F       1  UNL1       -0.1659
     38 F          -4.1275    5.9547   23.4767 F       1  UNL1       -0.1659
     39 F          -5.2825    3.2052   23.1512 F       1  UNL1       -0.1659
@<TRIPOS>BOND
     1    19    20    1
     2    20    15    1
     3    15    16    2
     4    15    17   am
     5    14    17    1
     6    14     7    1
     7     7     8    2
     8     7     9   am
     9     9    10    1
    10    10    11    1
    11    11    12    1
    12    12    13    1
    13    13     1    1
    14     1     2   ar
    15     2     3   ar
    16     3     4   ar
    17     4    24    1
    18    24    25   ar
    19    25    26   ar
    20    26    27   ar
    21    27    30    1
    22    30    31   ar
    23    31    32   ar
    24    32    33   ar
    25    33    36    1
    26    36    37    1
    27    36    38    1
    28    36    39    1
    29    33    34   ar
    30    34    35   ar
    31    27    28   ar
    32    28    29   ar
    33     4     5   ar
    34    14    21    1
    35    21    22    1
    36    21    23    1
    37    13     9    1
    38     5     1   ar
    39    29    24   ar
    40    35    30   ar
    41    17    18    1
    42     5     6    1
@<TRIPOS>MOLECULE
*****
 39 42 0 0 0
SMALL
GASTEIGER

@<TRIPOS>ATOM
      1 C           1.0766    1.7719   30.7094 C.ar    1  UNL1        0.1353
      2 N          -0.2997    1.2217   30.4793 N.ar    1  UNL1       -0.2279
      3 C          -0.4156    0.8541   29.0297 C.ar    1  UNL1        0.1171
      4 C           0.8891    1.1771   28.3639 C.ar    1  UNL1        0.0769
      5 N           1.8114    1.7443   29.4020 N.ar    1  UNL1       -0.3394
      6 H           2.7365    2.0456   29.2516 H       1  UNL1        0.1671
      7 C           3.6612    0.5561   32.2877 C.2     1  UNL1        0.2439
      8 O           3.3503   -0.1426   30.9973 O.2     1  UNL1       -0.2731
      9 N           2.8104    1.7046   32.7427 N.am    1  UNL1       -0.2730
     10 C           2.9982    2.4958   34.0031 C.3     1  UNL1        0.0939
     11 C           1.9262    3.5437   34.0566 C.3     1  UNL1        0.0237
     12 C           1.0759    3.4001   32.8293 C.3     1  UNL1        0.0293
     13 C           1.6224    2.2634   32.0173 C.3     1  UNL1        0.1319
     14 C           4.8230    0.1063   33.1231 C.3     1  UNL1        0.1512
     15 C           7.1579    0.0375   31.9857 C.2     1  UNL1        0.4021
     16 O           6.7782   -1.2322   31.2831 O.2     1  UNL1       -0.2264
     17 N           6.1802    0.7067   32.9058 N.am    1  UNL1       -0.2640
     18 H           6.4294    1.5401   33.3669 H       1  UNL1        0.1532
     19 C           8.6729    2.1279   31.6947 C.3     1  UNL1        0.2573
     20 O           8.5151    0.6381   31.7684 O.3     1  UNL1       -0.4306
     21 C           4.6275   -0.9441   34.1760 C.3     1  UNL1        0.0270
     22 C           4.7536   -0.5844   35.6268 C.3     1  UNL1        0.0022
     23 C           4.3057   -2.3542   33.7782 C.3     1  UNL1        0.0022
     24 C           1.2146    0.9693   26.9144 C.ar    1  UNL1        0.0172
     25 C           2.5666    0.4569   26.5152 C.ar    1  UNL1        0.0015
     26 C           2.8920    0.2491   25.0658 C.ar    1  UNL1        0.0000
     27 C           1.8653    0.5538   24.0155 C.ar    1  UNL1        0.0000
     28 C           0.5132    1.0662   24.4146 C.ar    1  UNL1        0.0000
     29 C           0.1879    1.2739   25.8641 C.ar    1  UNL1        0.0015
     30 C           2.1907    0.3460   22.5660 C.ar    1  UNL1       -0.0000
     31 C           1.8267    1.3952   21.5577 C.ar    1  UNL1       -0.0001
     32 C           2.1521    1.1874   20.1082 C.ar    1  UNL1        0.0039
     33 C           2.8416   -0.0696   19.6670 C.ar    1  UNL1        0.0714
     34 C           3.2055   -1.1188   20.6754 C.ar    1  UNL1        0.0039
     35 C           2.8801   -0.9110   22.1248 C.ar    1  UNL1       -0.0001
     36 C           3.1670   -0.2774   18.2176 C.3     1  UNL1        0.4186
     37 F           3.4924   -0.4852   16.7682 F       1  UNL1       -0.1659
     38 F           2.4294    0.9820   17.8714 F       1  UNL1       -0.1659
     39 F           3.9046   -1.5368   18.5638 F       1  UNL1       -0.1659
@<TRIPOS>BOND
     1    19    20    1
     2    20    15    1
     3    15    16    2
     4    15    17   am
     5    14    17    1
     6    14     7    1
     7     7     8    2
     8     7     9   am
     9     9    10    1
    10    10    11    1
    11    11    12    1
    12    12    13    1
    13    13     1    1
    14     1     2   ar
    15     2     3   ar
    16     3     4   ar
    17     4    24    1
    18    24    25   ar
    19    25    26   ar
    20    26    27   ar
    21    27    30    1
    22    30    31   ar
    23    31    32   ar
    24    32    33   ar
    25    33    36    1
    26    36    37    1
    27    36    38    1
    28    36    39    1
    29    33    34   ar
    30    34    35   ar
    31    27    28   ar
    32    28    29   ar
    33     4     5   ar
    34    14    21    1
    35    21    22    1
    36    21    23    1
    37    13     9    1
    38     5     1   ar
    39    29    24   ar
    40    35    30   ar
    41    17    18    1
    42     5     6    1
@<TRIPOS>MOLECULE
*****
 39 42 0 0 0
SMALL
GASTEIGER

@<TRIPOS>ATOM
      1 C         -16.1784    4.0312   19.6432 C.ar    1  UNL1        0.1353
      2 N         -15.8615    4.2214   18.1894 N.ar    1  UNL1       -0.2279
      3 C         -15.1052    3.0148   17.7181 C.ar    1  UNL1        0.1171
      4 C         -14.9547    2.0789   18.8806 C.ar    1  UNL1        0.0769
      5 N         -15.6180    2.7070   20.0703 N.ar    1  UNL1       -0.3394
      6 H         -15.6753    2.3184   20.9731 H       1  UNL1        0.1671
      7 C         -15.0238    5.4703   22.3349 C.2     1  UNL1        0.2439
      8 O         -14.0447    4.5511   21.6668 O.2     1  UNL1       -0.2731
      9 N         -16.3940    5.6573   21.7537 N.am    1  UNL1       -0.2730
     10 C         -17.4740    6.5385   22.3077 C.3     1  UNL1        0.0939
     11 C         -18.6721    6.4217   21.4129 C.3     1  UNL1        0.0237
     12 C         -18.3326    5.4682   20.3058 C.3     1  UNL1        0.0293
     13 C         -16.9247    4.9958   20.5165 C.3     1  UNL1        0.1319
     14 C         -14.6328    6.2027   23.5842 C.3     1  UNL1        0.1512
     15 C         -12.2143    6.7808   24.3368 C.2     1  UNL1        0.4021
     16 O         -12.1501    5.4999   25.1147 O.2     1  UNL1       -0.2264
     17 N         -13.4557    7.1322   23.5716 N.am    1  UNL1       -0.2640
     18 H         -13.4978    7.9729   23.0610 H       1  UNL1        0.1532
     19 C          -9.6477    7.1594   24.1983 C.3     1  UNL1        0.2573
     20 O         -11.0372    7.7104   24.3240 O.3     1  UNL1       -0.4306
     21 C         -15.4191    6.0054   24.8463 C.3     1  UNL1        0.0270
     22 C         -15.8976    7.1945   25.6255 C.3     1  UNL1        0.0022
     23 C         -15.7270    4.6190   25.3293 C.3     1  UNL1        0.0022
     24 C         -14.2624    0.7483   18.8574 C.ar    1  UNL1        0.0172
     25 C         -14.9365   -0.4581   19.4405 C.ar    1  UNL1        0.0015
     26 C         -14.2443   -1.7886   19.4173 C.ar    1  UNL1        0.0000
     27 C         -12.8779   -1.9126   18.8109 C.ar    1  UNL1        0.0000
     28 C         -12.2038   -0.7062   18.2278 C.ar    1  UNL1        0.0000
     29 C         -12.8961    0.6243   18.2510 C.ar    1  UNL1        0.0015
     30 C         -12.1857   -3.2432   18.7877 C.ar    1  UNL1       -0.0000
     31 C         -12.9916   -4.5082   18.7963 C.ar    1  UNL1       -0.0001
     32 C         -12.2994   -5.8387   18.7731 C.ar    1  UNL1        0.0039
     33 C         -10.8011   -5.9042   18.7414 C.ar    1  UNL1        0.0714
     34 C          -9.9952   -4.6391   18.7328 C.ar    1  UNL1        0.0039
     35 C         -10.6874   -3.3086   18.7560 C.ar    1  UNL1       -0.0001
     36 C         -10.1089   -7.2347   18.7182 C.3     1  UNL1        0.4186
     37 F          -9.4166   -8.5651   18.6950 F       1  UNL1       -0.1659
     38 F         -11.1352   -7.7519   17.7542 F       1  UNL1       -0.1659
     39 F          -9.0826   -6.7175   19.6821 F       1  UNL1       -0.1659
@<TRIPOS>BOND
     1    19    20    1
     2    20    15    1
     3    15    16    2
     4    15    17   am
     5    14    17    1
     6    14     7    1
     7     7     8    2
     8     7     9   am
     9     9    10    1
    10    10    11    1
    11    11    12    1
    12    12    13    1
    13    13     1    1
    14     1     2   ar
    15     2     3   ar
    16     3     4   ar
    17     4    24    1
    18    24    25   ar
    19    25    26   ar
    20    26    27   ar
    21    27    30    1
    22    30    31   ar
    23    31    32   ar
    24    32    33   ar
    25    33    36    1
    26    36    37    1
    27    36    38    1
    28    36    39    1
    29    33    34   ar
    30    34    35   ar
    31    27    28   ar
    32    28    29   ar
    33     4     5   ar
    34    14    21    1
    35    21    22    1
    36    21    23    1
    37    13     9    1
    38     5     1   ar
    39    29    24   ar
    40    35    30   ar
    41    17    18    1
    42     5     6    1
