@<TRIPOS>MOLECULE
*****
 37 40 0 0 0
SMALL
GASTEIGER

@<TRIPOS>ATOM
      1 C           6.5290   -5.7760   27.3103 C.3     1  UNL1        0.0476
      2 C           7.1323   -3.5999   31.2027 C.ar    1  UNL1       -0.0062
      3 C           6.7955   -2.8324   29.9587 C.ar    1  UNL1       -0.0032
      4 C           6.5944   -3.5577   28.6613 C.ar    1  UNL1       -0.0045
      5 C           6.7301   -5.0506   28.6078 C.ar    1  UNL1       -0.0205
      6 C           7.0669   -5.8181   29.8518 C.ar    1  UNL1       -0.0045
      7 C           7.2680   -5.0928   31.1493 C.ar    1  UNL1       -0.0032
      8 C           7.3335   -2.8745   32.5002 C.3     1  UNL1        0.0991
      9 C           4.5129    0.4217   33.6958 C.3     1  UNL1        0.0743
     10 C           5.9240    0.7471   33.3048 C.3     1  UNL1        0.0369
     11 C           6.8642   -0.3516   32.9062 C.3     1  UNL1        0.0741
     12 N           6.3933   -1.7757   32.8987 N.3     1  UNL1       -0.2689
     13 C           4.9822   -2.1011   33.2897 C.3     1  UNL1        0.0741
     14 C           4.0420   -1.0024   33.6883 C.3     1  UNL1        0.0369
     15 C           2.4976    3.0040   35.9363 C.3     1  UNL1        0.0946
     16 C           3.4377    1.9053   35.5378 C.2     1  UNL1        0.2229
     17 O           4.2429    1.1913   36.5828 O.2     1  UNL1       -0.2751
     18 N           3.5728    1.5205   34.0943 N.am    1  UNL1       -0.3059
     19 H           3.0443    1.9891   33.4085 H       1  UNL1        0.1494
     20 C           7.0649   -5.1952   26.0354 C.3     1  UNL1        0.0944
     21 N           6.1958   -4.3120   25.1901 N.am    1  UNL1       -0.3005
     22 C           6.3113   -4.3554   23.6952 C.2     1  UNL1        0.2459
     23 O           7.2959   -5.2820   23.0456 O.2     1  UNL1       -0.2701
     24 H           5.5496   -3.7038   25.6165 H       1  UNL1        0.1497
     25 C           5.4422   -3.4721   22.8499 C.ar    1  UNL1        0.0534
     26 C           5.4319   -3.6357   21.3589 C.ar    1  UNL1        0.0045
     27 C           4.5628   -2.7524   20.5135 C.ar    1  UNL1        0.0001
     28 C           3.7040   -1.7057   21.1591 C.ar    1  UNL1        0.0000
     29 C           3.7144   -1.5422   22.6502 C.ar    1  UNL1        0.0001
     30 C           4.5835   -2.4254   23.4955 C.ar    1  UNL1        0.0045
     31 C           2.8350   -0.8225   20.3138 C.ar    1  UNL1        0.0001
     32 C           3.3506   -0.2892   19.0100 C.ar    1  UNL1        0.0023
     33 C           2.4815    0.5940   18.1647 C.ar    1  UNL1        0.0296
     34 C           1.0968    0.9440   18.6231 C.ar    1  UNL1        0.1401
     35 F           0.2277    1.8272   17.7778 F       1  UNL1       -0.2042
     36 C           0.5812    0.4108   19.9269 C.ar    1  UNL1        0.0296
     37 C           1.4503   -0.4725   20.7723 C.ar    1  UNL1        0.0023
@<TRIPOS>BOND
     1    15    16    1
     2    16    17    2
     3    16    18   am
     4    18     9    1
     5     9    10    1
     6    10    11    1
     7    11    12    1
     8    12     8    1
     9     8     2    1
    10     2     3   ar
    11     3     4   ar
    12     4     5   ar
    13     5     1    1
    14     1    20    1
    15    20    21    1
    16    21    22   am
    17    22    23    2
    18    22    25    1
    19    25    26   ar
    20    26    27   ar
    21    27    28   ar
    22    28    31    1
    23    31    32   ar
    24    32    33   ar
    25    33    34   ar
    26    34    35    1
    27    34    36   ar
    28    36    37   ar
    29    28    29   ar
    30    29    30   ar
    31     5     6   ar
    32     6     7   ar
    33    12    13    1
    34    13    14    1
    35    14     9    1
    36     7     2   ar
    37    30    25   ar
    38    37    31   ar
    39    18    19    1
    40    21    24    1
@<TRIPOS>MOLECULE
*****
 37 40 0 0 0
SMALL
GASTEIGER

@<TRIPOS>ATOM
      1 C          -4.4634    3.2619   20.9423 C.3     1  UNL1        0.0476
      2 C          -7.2481    5.2077   23.8935 C.ar    1  UNL1       -0.0062
      3 C          -6.0969    4.3795   24.3821 C.ar    1  UNL1       -0.0032
      4 C          -5.1687    3.7309   23.3984 C.ar    1  UNL1       -0.0045
      5 C          -5.3916    3.9105   21.9260 C.ar    1  UNL1       -0.0205
      6 C          -6.5428    4.7387   21.4373 C.ar    1  UNL1       -0.0045
      7 C          -7.4711    5.3874   22.4210 C.ar    1  UNL1       -0.0032
      8 C          -8.1763    5.8563   24.8772 C.3     1  UNL1        0.0991
      9 C         -12.6201    5.2447   24.5183 C.3     1  UNL1        0.0743
     10 C         -12.0424    6.6253   24.4168 C.3     1  UNL1        0.0369
     11 C         -10.5611    6.8291   24.5364 C.3     1  UNL1        0.0741
     12 N          -9.6576    5.6525   24.7575 N.3     1  UNL1       -0.2689
     13 C         -10.2353    4.2719   24.8590 C.3     1  UNL1        0.0741
     14 C         -11.7165    4.0681   24.7394 C.3     1  UNL1        0.0369
     15 C         -16.2099    4.6701   22.9268 C.3     1  UNL1        0.0946
     16 C         -14.7287    4.8740   23.0464 C.2     1  UNL1        0.2229
     17 O         -13.8747    4.9109   21.8137 O.2     1  UNL1       -0.2751
     18 N         -14.1013    5.0409   24.3987 N.am    1  UNL1       -0.3059
     19 H         -14.6618    5.0166   25.2077 H       1  UNL1        0.1494
     20 C          -3.0245    3.6810   20.8800 C.3     1  UNL1        0.0944
     21 N          -1.9395    2.6462   20.9207 N.am    1  UNL1       -0.3005
     22 C          -0.9169    2.5881   19.8247 C.2     1  UNL1        0.2459
     23 O          -0.9794    3.5649   18.6881 O.2     1  UNL1       -0.2701
     24 H          -1.8984    2.0051   21.6667 H       1  UNL1        0.1497
     25 C           0.1681    1.5532   19.8654 C.ar    1  UNL1        0.0534
     26 C           0.4315    0.7921   21.1308 C.ar    1  UNL1        0.0045
     27 C           1.5166   -0.2428   21.1716 C.ar    1  UNL1        0.0001
     28 C           2.3383   -0.5166   19.9469 C.ar    1  UNL1        0.0000
     29 C           2.0749    0.2446   18.6814 C.ar    1  UNL1        0.0001
     30 C           0.9898    1.2795   18.6407 C.ar    1  UNL1        0.0045
     31 C           3.4233   -1.5514   19.9876 C.ar    1  UNL1        0.0001
     32 C           3.9970   -2.0873   18.7093 C.ar    1  UNL1        0.0023
     33 C           5.0821   -3.1222   18.7500 C.ar    1  UNL1        0.0296
     34 C           5.5934   -3.6212   20.0689 C.ar    1  UNL1        0.1401
     35 F           6.6785   -4.6561   20.1096 F       1  UNL1       -0.2042
     36 C           5.0198   -3.0854   21.3471 C.ar    1  UNL1        0.0296
     37 C           3.9347   -2.0505   21.3064 C.ar    1  UNL1        0.0023
@<TRIPOS>BOND
     1    15    16    1
     2    16    17    2
     3    16    18   am
     4    18     9    1
     5     9    10    1
     6    10    11    1
     7    11    12    1
     8    12     8    1
     9     8     2    1
    10     2     3   ar
    11     3     4   ar
    12     4     5   ar
    13     5     1    1
    14     1    20    1
    15    20    21    1
    16    21    22   am
    17    22    23    2
    18    22    25    1
    19    25    26   ar
    20    26    27   ar
    21    27    28   ar
    22    28    31    1
    23    31    32   ar
    24    32    33   ar
    25    33    34   ar
    26    34    35    1
    27    34    36   ar
    28    36    37   ar
    29    28    29   ar
    30    29    30   ar
    31     5     6   ar
    32     6     7   ar
    33    12    13    1
    34    13    14    1
    35    14     9    1
    36     7     2   ar
    37    30    25   ar
    38    37    31   ar
    39    18    19    1
    40    21    24    1
@<TRIPOS>MOLECULE
*****
 37 40 0 0 0
SMALL
GASTEIGER

@<TRIPOS>ATOM
      1 C           0.8345    0.7482   29.5760 C.3     1  UNL1        0.0476
      2 C          -1.1922    3.6907   26.8402 C.ar    1  UNL1       -0.0062
      3 C          -0.0713    4.1420   27.7290 C.ar    1  UNL1       -0.0032
      4 C           0.6042    3.1612   28.6409 C.ar    1  UNL1       -0.0045
      5 C           0.1589    1.7290   28.6640 C.ar    1  UNL1       -0.0205
      6 C          -0.9620    1.2777   27.7753 C.ar    1  UNL1       -0.0045
      7 C          -1.6375    2.2585   26.8633 C.ar    1  UNL1       -0.0032
      8 C          -1.8677    4.6715   25.9283 C.3     1  UNL1        0.0991
      9 C          -3.9192    3.2266   22.1928 C.3     1  UNL1        0.0743
     10 C          -4.6852    3.3257   23.4786 C.3     1  UNL1        0.0369
     11 C          -4.0013    3.8074   24.7238 C.3     1  UNL1        0.0741
     12 N          -2.5515    4.1899   24.6831 N.3     1  UNL1       -0.2689
     13 C          -1.7856    4.0908   23.3973 C.3     1  UNL1        0.0741
     14 C          -2.4694    3.6092   22.1521 C.3     1  UNL1        0.0369
     15 C          -6.1107    3.2129   18.8842 C.3     1  UNL1        0.0946
     16 C          -5.4268    3.6945   20.1293 C.2     1  UNL1        0.2229
     17 O          -5.5669    5.1257   20.5561 O.2     1  UNL1       -0.2751
     18 N          -4.6030    2.7450   20.9476 N.am    1  UNL1       -0.3059
     19 H          -4.5111    1.8057   20.6675 H       1  UNL1        0.1494
     20 C           1.8543   -0.2056   29.0283 C.3     1  UNL1        0.0944
     21 N           1.9552   -0.4273   27.5482 N.am    1  UNL1       -0.3005
     22 C           2.8142    0.4741   26.7116 C.2     1  UNL1        0.2459
     23 O           3.5723    1.5970   27.3552 O.2     1  UNL1       -0.2701
     24 H           1.4576   -1.1643   27.1258 H       1  UNL1        0.1497
     25 C           2.9150    0.2524   25.2316 C.ar    1  UNL1        0.0534
     26 C           3.6206   -0.9603   24.7012 C.ar    1  UNL1        0.0045
     27 C           3.7214   -1.1821   23.2211 C.ar    1  UNL1        0.0001
     28 C           3.1166   -0.1910   22.2713 C.ar    1  UNL1        0.0000
     29 C           2.4110    1.0218   22.8018 C.ar    1  UNL1        0.0001
     30 C           2.3102    1.2435   24.2818 C.ar    1  UNL1        0.0045
     31 C           3.2174   -0.4126   20.7913 C.ar    1  UNL1        0.0001
     32 C           2.8593    0.6917   19.8414 C.ar    1  UNL1        0.0023
     33 C           2.9601    0.4701   18.3613 C.ar    1  UNL1        0.0296
     34 C           3.4191   -0.8559   17.8310 C.ar    1  UNL1        0.1401
     35 F           3.5199   -1.0775   16.3510 F       1  UNL1       -0.2042
     36 C           3.7772   -1.9602   18.7808 C.ar    1  UNL1        0.0296
     37 C           3.6764   -1.7386   20.2610 C.ar    1  UNL1        0.0023
@<TRIPOS>BOND
     1    15    16    1
     2    16    17    2
     3    16    18   am
     4    18     9    1
     5     9    10    1
     6    10    11    1
     7    11    12    1
     8    12     8    1
     9     8     2    1
    10     2     3   ar
    11     3     4   ar
    12     4     5   ar
    13     5     1    1
    14     1    20    1
    15    20    21    1
    16    21    22   am
    17    22    23    2
    18    22    25    1
    19    25    26   ar
    20    26    27   ar
    21    27    28   ar
    22    28    31    1
    23    31    32   ar
    24    32    33   ar
    25    33    34   ar
    26    34    35    1
    27    34    36   ar
    28    36    37   ar
    29    28    29   ar
    30    29    30   ar
    31     5     6   ar
    32     6     7   ar
    33    12    13    1
    34    13    14    1
    35    14     9    1
    36     7     2   ar
    37    30    25   ar
    38    37    31   ar
    39    18    19    1
    40    21    24    1
@<TRIPOS>MOLECULE
*****
 37 40 0 0 0
SMALL
GASTEIGER

@<TRIPOS>ATOM
      1 C          -0.9902    0.9042   28.5537 C.3     1  UNL1        0.0476
      2 C           2.5671    0.7696   31.3066 C.ar    1  UNL1       -0.0062
      3 C           1.5250    1.8347   31.4792 C.ar    1  UNL1       -0.0032
      4 C           0.3393    1.8795   30.5616 C.ar    1  UNL1       -0.0045
      5 C           0.1956    0.8593   29.4714 C.ar    1  UNL1       -0.0205
      6 C           1.2376   -0.2057   29.2988 C.ar    1  UNL1       -0.0045
      7 C           2.4234   -0.2506   30.2164 C.ar    1  UNL1       -0.0032
      8 C           3.7528    0.7247   32.2242 C.3     1  UNL1        0.0991
      9 C           6.4752   -2.8583   32.2093 C.3     1  UNL1        0.0743
     10 C           5.1844   -2.9004   32.9720 C.3     1  UNL1        0.0369
     11 C           4.2769   -1.7060   32.9770 C.3     1  UNL1        0.0741
     12 N           4.6603   -0.4696   32.2192 N.3     1  UNL1       -0.2689
     13 C           5.9512   -0.4276   31.4565 C.3     1  UNL1        0.0741
     14 C           6.8586   -1.6219   31.4515 C.3     1  UNL1        0.0369
     15 C           8.3207   -6.1608   31.0102 C.3     1  UNL1        0.0946
     16 C           7.4133   -4.9664   31.0152 C.2     1  UNL1        0.2229
     17 O           6.5364   -4.6859   29.8309 O.2     1  UNL1       -0.2751
     18 N           7.3827   -4.0527   32.2043 N.am    1  UNL1       -0.3059
     19 H           7.9582   -4.2368   32.9816 H       1  UNL1        0.1494
     20 C          -0.9009    1.6376   27.2483 C.3     1  UNL1        0.0944
     21 N          -0.2151    1.0012   26.0759 N.am    1  UNL1       -0.3005
     22 C           1.2370    1.2746   25.8175 C.2     1  UNL1        0.2459
     23 O           2.0032    2.1843   26.7314 O.2     1  UNL1       -0.2701
     24 H          -0.7179    0.4041   25.4761 H       1  UNL1        0.1497
     25 C           1.9229    0.6381   24.6451 C.ar    1  UNL1        0.0534
     26 C           3.0461   -0.3306   24.8685 C.ar    1  UNL1        0.0045
     27 C           3.7320   -0.9671   23.6961 C.ar    1  UNL1        0.0001
     28 C           3.2947   -0.6348   22.3003 C.ar    1  UNL1        0.0000
     29 C           2.1715    0.3340   22.0769 C.ar    1  UNL1        0.0001
     30 C           1.4856    0.9705   23.2493 C.ar    1  UNL1        0.0045
     31 C           3.9806   -1.2712   21.1279 C.ar    1  UNL1        0.0001
     32 C           5.4763   -1.2302   21.0211 C.ar    1  UNL1        0.0023
     33 C           6.1621   -1.8666   19.8487 C.ar    1  UNL1        0.0296
     34 C           5.3524   -2.5440   18.7831 C.ar    1  UNL1        0.1401
     35 F           6.0383   -3.1804   17.6108 F       1  UNL1       -0.2042
     36 C           3.8568   -2.5850   18.8899 C.ar    1  UNL1        0.0296
     37 C           3.1709   -1.9486   20.0624 C.ar    1  UNL1        0.0023
@<TRIPOS>BOND
     1    15    16    1
     2    16    17    2
     3    16    18   am
     4    18     9    1
     5     9    10    1
     6    10    11    1
     7    11    12    1
     8    12     8    1
     9     8     2    1
    10     2     3   ar
    11     3     4   ar
    12     4     5   ar
    13     5     1    1
    14     1    20    1
    15    20    21    1
    16    21    22   am
    17    22    23    2
    18    22    25    1
    19    25    26   ar
    20    26    27   ar
    21    27    28   ar
    22    28    31    1
    23    31    32   ar
    24    32    33   ar
    25    33    34   ar
    26    34    35    1
    27    34    36   ar
    28    36    37   ar
    29    28    29   ar
    30    29    30   ar
    31     5     6   ar
    32     6     7   ar
    33    12    13    1
    34    13    14    1
    35    14     9    1
    36     7     2   ar
    37    30    25   ar
    38    37    31   ar
    39    18    19    1
    40    21    24    1
@<TRIPOS>MOLECULE
*****
 37 40 0 0 0
SMALL
GASTEIGER

@<TRIPOS>ATOM
      1 C           8.7512   -5.9409   26.0995 C.3     1  UNL1        0.0476
      2 C           7.4179   -4.5013   30.1493 C.ar    1  UNL1       -0.0062
      3 C           8.7444   -4.0685   29.5987 C.ar    1  UNL1       -0.0032
      4 C           9.1888   -4.5483   28.2488 C.ar    1  UNL1       -0.0045
      5 C           8.3068   -5.4610   27.4494 C.ar    1  UNL1       -0.0205
      6 C           6.9803   -5.8939   28.0000 C.ar    1  UNL1       -0.0045
      7 C           6.5359   -5.4140   29.3499 C.ar    1  UNL1       -0.0032
      8 C           6.9735   -4.0215   31.4992 C.3     1  UNL1        0.0991
      9 C           4.2211   -0.4772   31.8334 C.3     1  UNL1        0.0743
     10 C           4.2827   -1.4861   32.9416 C.3     1  UNL1        0.0369
     11 C           5.2002   -2.6675   32.8302 C.3     1  UNL1        0.0741
     12 N           6.0561   -2.8401   31.6106 N.3     1  UNL1       -0.2689
     13 C           5.9945   -1.8312   30.5023 C.3     1  UNL1        0.0741
     14 C           5.0770   -0.6497   30.6137 C.3     1  UNL1        0.0369
     15 C           1.1183    1.9288   31.2558 C.3     1  UNL1        0.0946
     16 C           2.0358    0.7474   31.1444 C.2     1  UNL1        0.2229
     17 O           1.6854   -0.3910   30.2325 O.2     1  UNL1       -0.2751
     18 N           3.3036    0.7042   31.9448 N.am    1  UNL1       -0.3059
     19 H           3.5335    1.4513   32.5433 H       1  UNL1        0.1494
     20 C           9.2020   -4.9540   25.0637 C.3     1  UNL1        0.0944
     21 N           8.1917   -4.1237   24.3291 N.am    1  UNL1       -0.3005
     22 C           7.6087   -4.6196   23.0390 C.2     1  UNL1        0.2459
     23 O           8.0361   -5.9458   22.4836 O.2     1  UNL1       -0.2701
     24 H           7.9112   -3.2532   24.6936 H       1  UNL1        0.1497
     25 C           6.5983   -3.7893   22.3043 C.ar    1  UNL1        0.0534
     26 C           6.8953   -3.2998   20.9179 C.ar    1  UNL1        0.0045
     27 C           5.8849   -2.4695   20.1832 C.ar    1  UNL1        0.0001
     28 C           4.5776   -2.1286   20.8349 C.ar    1  UNL1        0.0000
     29 C           4.2807   -2.6181   22.2215 C.ar    1  UNL1        0.0001
     30 C           5.2910   -3.4484   22.9561 C.ar    1  UNL1        0.0045
     31 C           3.5673   -1.2983   20.1003 C.ar    1  UNL1        0.0001
     32 C           3.8818   -0.7719   18.7313 C.ar    1  UNL1        0.0023
     33 C           2.8715    0.0585   17.9967 C.ar    1  UNL1        0.0296
     34 C           1.5466    0.3624   18.6309 C.ar    1  UNL1        0.1401
     35 F           0.5363    1.1927   17.8963 F       1  UNL1       -0.2042
     36 C           1.2320   -0.1640   19.9998 C.ar    1  UNL1        0.0296
     37 C           2.2424   -0.9944   20.7345 C.ar    1  UNL1        0.0023
@<TRIPOS>BOND
     1    15    16    1
     2    16    17    2
     3    16    18   am
     4    18     9    1
     5     9    10    1
     6    10    11    1
     7    11    12    1
     8    12     8    1
     9     8     2    1
    10     2     3   ar
    11     3     4   ar
    12     4     5   ar
    13     5     1    1
    14     1    20    1
    15    20    21    1
    16    21    22   am
    17    22    23    2
    18    22    25    1
    19    25    26   ar
    20    26    27   ar
    21    27    28   ar
    22    28    31    1
    23    31    32   ar
    24    32    33   ar
    25    33    34   ar
    26    34    35    1
    27    34    36   ar
    28    36    37   ar
    29    28    29   ar
    30    29    30   ar
    31     5     6   ar
    32     6     7   ar
    33    12    13    1
    34    13    14    1
    35    14     9    1
    36     7     2   ar
    37    30    25   ar
    38    37    31   ar
    39    18    19    1
    40    21    24    1
@<TRIPOS>MOLECULE
*****
 37 40 0 0 0
SMALL
GASTEIGER

@<TRIPOS>ATOM
      1 C           7.7677   -8.0605   26.3076 C.3     1  UNL1        0.0476
      2 C           8.4398   -5.3411   22.7857 C.ar    1  UNL1       -0.0062
      3 C           9.0594   -6.7071   22.8076 C.ar    1  UNL1       -0.0032
      4 C           8.8353   -7.6135   23.9815 C.ar    1  UNL1       -0.0045
      5 C           7.9918   -7.1540   25.1336 C.ar    1  UNL1       -0.0205
      6 C           7.3722   -5.7882   25.1117 C.ar    1  UNL1       -0.0045
      7 C           7.5963   -4.8817   23.9377 C.ar    1  UNL1       -0.0032
      8 C           8.6639   -4.4347   21.6117 C.3     1  UNL1        0.0991
      9 C           5.3570   -1.7333   20.1915 C.3     1  UNL1        0.0743
     10 C           6.6046   -1.1454   20.7813 C.3     1  UNL1        0.0369
     11 C           7.7069   -2.0459   21.2547 C.3     1  UNL1        0.0741
     12 N           7.5616   -3.5343   21.1383 N.3     1  UNL1       -0.2689
     13 C           6.3140   -4.1222   20.5485 C.3     1  UNL1        0.0741
     14 C           5.2118   -3.2217   20.0751 C.3     1  UNL1        0.0369
     15 C           2.9036    0.2399   17.7755 C.3     1  UNL1        0.0946
     16 C           4.0058   -0.6606   18.2489 C.2     1  UNL1        0.2229
     17 O           4.8592   -1.3889   17.2532 O.2     1  UNL1       -0.2751
     18 N           4.2548   -0.8328   19.7180 N.am    1  UNL1       -0.3059
     19 H           3.6947   -0.3549   20.3716 H       1  UNL1        0.1494
     20 C           8.1767   -7.6221   27.6825 C.3     1  UNL1        0.0944
     21 N           7.4410   -6.5065   28.3637 N.am    1  UNL1       -0.3005
     22 C           7.9546   -5.9501   29.6587 C.2     1  UNL1        0.2459
     23 O           9.2039   -6.5094   30.2723 O.2     1  UNL1       -0.2701
     24 H           6.6211   -6.1394   27.9610 H       1  UNL1        0.1497
     25 C           7.2189   -4.8345   30.3399 C.ar    1  UNL1        0.0534
     26 C           6.9757   -4.8898   31.8190 C.ar    1  UNL1        0.0045
     27 C           6.2400   -3.7741   32.5004 C.ar    1  UNL1        0.0001
     28 C           5.7475   -2.6033   31.7025 C.ar    1  UNL1        0.0000
     29 C           5.9906   -2.5481   30.2233 C.ar    1  UNL1        0.0001
     30 C           6.7263   -3.6637   29.5421 C.ar    1  UNL1        0.0045
     31 C           5.0118   -1.4877   32.3838 C.ar    1  UNL1        0.0001
     32 C           5.2895   -1.1759   33.8246 C.ar    1  UNL1        0.0023
     33 C           4.5538   -0.0604   34.5058 C.ar    1  UNL1        0.0296
     34 C           3.5403    0.7435   33.7464 C.ar    1  UNL1        0.1401
     35 F           2.8046    1.8591   34.4276 F       1  UNL1       -0.2042
     36 C           3.2626    0.4318   32.3057 C.ar    1  UNL1        0.0296
     37 C           3.9983   -0.6839   31.6243 C.ar    1  UNL1        0.0023
@<TRIPOS>BOND
     1    15    16    1
     2    16    17    2
     3    16    18   am
     4    18     9    1
     5     9    10    1
     6    10    11    1
     7    11    12    1
     8    12     8    1
     9     8     2    1
    10     2     3   ar
    11     3     4   ar
    12     4     5   ar
    13     5     1    1
    14     1    20    1
    15    20    21    1
    16    21    22   am
    17    22    23    2
    18    22    25    1
    19    25    26   ar
    20    26    27   ar
    21    27    28   ar
    22    28    31    1
    23    31    32   ar
    24    32    33   ar
    25    33    34   ar
    26    34    35    1
    27    34    36   ar
    28    36    37   ar
    29    28    29   ar
    30    29    30   ar
    31     5     6   ar
    32     6     7   ar
    33    12    13    1
    34    13    14    1
    35    14     9    1
    36     7     2   ar
    37    30    25   ar
    38    37    31   ar
    39    18    19    1
    40    21    24    1
@<TRIPOS>MOLECULE
*****
 37 40 0 0 0
SMALL
GASTEIGER

@<TRIPOS>ATOM
      1 C           6.5368   -5.5753   28.7375 C.3     1  UNL1        0.0476
      2 C           7.6709   -4.8096   24.4505 C.ar    1  UNL1       -0.0062
      3 C           7.3090   -3.6626   25.3470 C.ar    1  UNL1       -0.0032
      4 C           6.9310   -3.9179   26.7759 C.ar    1  UNL1       -0.0045
      5 C           6.9148   -5.3201   27.3085 C.ar    1  UNL1       -0.0205
      6 C           7.2766   -6.4670   26.4121 C.ar    1  UNL1       -0.0045
      7 C           7.6547   -6.2118   24.9830 C.ar    1  UNL1       -0.0032
      8 C           8.0489   -4.5544   23.0216 C.3     1  UNL1        0.0991
      9 C           5.4223   -1.9847   20.4238 C.3     1  UNL1        0.0743
     10 C           4.8150   -3.0665   21.2670 C.3     1  UNL1        0.0369
     11 C           5.6905   -3.9230   22.1330 C.3     1  UNL1        0.0741
     12 N           7.1733   -3.6978   22.1556 N.3     1  UNL1       -0.2689
     13 C           7.7806   -2.6161   21.3124 C.3     1  UNL1        0.0741
     14 C           6.9051   -1.7596   20.4465 C.3     1  UNL1        0.0369
     15 C           3.6168   -0.5100   17.2121 C.3     1  UNL1        0.0946
     16 C           4.4924   -1.3665   18.0780 C.2     1  UNL1        0.2229
     17 O           5.3135   -2.4614   17.4639 O.2     1  UNL1       -0.2751
     18 N           4.5468   -1.1282   19.5579 N.am    1  UNL1       -0.3059
     19 H           4.0078   -0.4096   19.9609 H       1  UNL1        0.1494
     20 C           7.2645   -4.8698   29.8432 C.3     1  UNL1        0.0944
     21 N           6.5245   -3.9291   30.7474 N.am    1  UNL1       -0.3005
     22 C           7.2539   -3.2174   31.8481 C.2     1  UNL1        0.2459
     23 O           8.7232   -3.4464   32.0446 O.2     1  UNL1       -0.2701
     24 H           5.5601   -3.7788   30.6184 H       1  UNL1        0.1497
     25 C           6.5139   -2.2766   32.7522 C.ar    1  UNL1        0.0534
     26 C           7.2149   -1.0813   33.3264 C.ar    1  UNL1        0.0045
     27 C           6.4750   -0.1405   34.2305 C.ar    1  UNL1        0.0001
     28 C           5.0340   -0.3951   34.5605 C.ar    1  UNL1        0.0000
     29 C           4.3331   -1.5905   33.9862 C.ar    1  UNL1        0.0001
     30 C           5.0730   -2.5313   33.0821 C.ar    1  UNL1        0.0045
     31 C           4.2941    0.5456   35.4646 C.ar    1  UNL1        0.0001
     32 C           4.3441    0.3521   36.9513 C.ar    1  UNL1        0.0023
     33 C           3.6042    1.2928   37.8554 C.ar    1  UNL1        0.0296
     34 C           2.8142    2.4271   37.2729 C.ar    1  UNL1        0.1401
     35 F           2.0742    3.3678   38.1770 F       1  UNL1       -0.2042
     36 C           2.7641    2.6206   35.7863 C.ar    1  UNL1        0.0296
     37 C           3.5041    1.6799   34.8821 C.ar    1  UNL1        0.0023
@<TRIPOS>BOND
     1    15    16    1
     2    16    17    2
     3    16    18   am
     4    18     9    1
     5     9    10    1
     6    10    11    1
     7    11    12    1
     8    12     8    1
     9     8     2    1
    10     2     3   ar
    11     3     4   ar
    12     4     5   ar
    13     5     1    1
    14     1    20    1
    15    20    21    1
    16    21    22   am
    17    22    23    2
    18    22    25    1
    19    25    26   ar
    20    26    27   ar
    21    27    28   ar
    22    28    31    1
    23    31    32   ar
    24    32    33   ar
    25    33    34   ar
    26    34    35    1
    27    34    36   ar
    28    36    37   ar
    29    28    29   ar
    30    29    30   ar
    31     5     6   ar
    32     6     7   ar
    33    12    13    1
    34    13    14    1
    35    14     9    1
    36     7     2   ar
    37    30    25   ar
    38    37    31   ar
    39    18    19    1
    40    21    24    1
@<TRIPOS>MOLECULE
*****
 37 40 0 0 0
SMALL
GASTEIGER

@<TRIPOS>ATOM
      1 C          -0.0010    4.7170   18.3498 C.3     1  UNL1        0.0476
      2 C           2.7528    1.1580   18.3251 C.ar    1  UNL1       -0.0062
      3 C           1.2669    0.9570   18.2811 C.ar    1  UNL1       -0.0032
      4 C           0.3491    2.1433   18.2893 C.ar    1  UNL1       -0.0045
      5 C           0.9170    3.5307   18.3416 C.ar    1  UNL1       -0.0205
      6 C           2.4028    3.7317   18.3856 C.ar    1  UNL1       -0.0045
      7 C           3.3207    2.5453   18.3774 C.ar    1  UNL1       -0.0032
      8 C           3.6706   -0.0284   18.3169 C.3     1  UNL1        0.0991
      9 C           5.1511   -1.7548   22.1999 C.3     1  UNL1        0.0743
     10 C           3.7270   -1.9671   21.7793 C.3     1  UNL1        0.0369
     11 C           3.2336   -1.3916   20.4850 C.3     1  UNL1        0.0741
     12 N           4.1641   -0.6038   19.6112 N.3     1  UNL1       -0.2689
     13 C           5.5882   -0.3916   20.0318 C.3     1  UNL1        0.0741
     14 C           6.0817   -0.9671   21.3262 C.3     1  UNL1        0.0369
     15 C           6.7197   -4.2880   24.8214 C.3     1  UNL1        0.0946
     16 C           6.2262   -3.7125   23.5271 C.2     1  UNL1        0.2229
     17 O           6.3144   -4.5193   22.2656 O.2     1  UNL1       -0.2751
     18 N           5.6446   -2.3303   23.4942 N.am    1  UNL1       -0.3059
     19 H           5.5867   -1.8008   24.3222 H       1  UNL1        0.1494
     20 C          -0.7014    5.1146   19.6152 C.3     1  UNL1        0.0944
     21 N          -0.2750    4.5232   20.9261 N.am    1  UNL1       -0.3005
     22 C          -1.0197    3.3539   21.4991 C.2     1  UNL1        0.2459
     23 O          -2.1909    2.7761   20.7611 O.2     1  UNL1       -0.2701
     24 H           0.4937    4.9024   21.4104 H       1  UNL1        0.1497
     25 C          -0.5933    2.7625   22.8099 C.ar    1  UNL1        0.0534
     26 C           0.5237    1.7623   22.8534 C.ar    1  UNL1        0.0045
     27 C           0.9503    1.1709   24.1643 C.ar    1  UNL1        0.0001
     28 C           0.2597    1.5796   25.4316 C.ar    1  UNL1        0.0000
     29 C          -0.8574    2.5798   25.3880 C.ar    1  UNL1        0.0001
     30 C          -1.2838    3.1712   24.0772 C.ar    1  UNL1        0.0045
     31 C           0.6861    0.9882   26.7424 C.ar    1  UNL1        0.0001
     32 C           2.1403    0.7423   27.0167 C.ar    1  UNL1        0.0023
     33 C           2.5667    0.1509   28.3275 C.ar    1  UNL1        0.0296
     34 C           1.5391   -0.1946   29.3642 C.ar    1  UNL1        0.1401
     35 F           1.9656   -0.7860   30.6750 F       1  UNL1       -0.2042
     36 C           0.0850    0.0512   29.0900 C.ar    1  UNL1        0.0296
     37 C          -0.3415    0.6426   27.7791 C.ar    1  UNL1        0.0023
@<TRIPOS>BOND
     1    15    16    1
     2    16    17    2
     3    16    18   am
     4    18     9    1
     5     9    10    1
     6    10    11    1
     7    11    12    1
     8    12     8    1
     9     8     2    1
    10     2     3   ar
    11     3     4   ar
    12     4     5   ar
    13     5     1    1
    14     1    20    1
    15    20    21    1
    16    21    22   am
    17    22    23    2
    18    22    25    1
    19    25    26   ar
    20    26    27   ar
    21    27    28   ar
    22    28    31    1
    23    31    32   ar
    24    32    33   ar
    25    33    34   ar
    26    34    35    1
    27    34    36   ar
    28    36    37   ar
    29    28    29   ar
    30    29    30   ar
    31     5     6   ar
    32     6     7   ar
    33    12    13    1
    34    13    14    1
    35    14     9    1
    36     7     2   ar
    37    30    25   ar
    38    37    31   ar
    39    18    19    1
    40    21    24    1
@<TRIPOS>MOLECULE
*****
 37 40 0 0 0
SMALL
GASTEIGER

@<TRIPOS>ATOM
      1 C           2.1224    0.2339   29.7957 C.3     1  UNL1        0.0476
      2 C          -0.0645    3.5712   27.7146 C.ar    1  UNL1       -0.0062
      3 C           1.2553    3.8371   28.3760 C.ar    1  UNL1       -0.0032
      4 C           1.9843    2.7247   29.0697 C.ar    1  UNL1       -0.0045
      5 C           1.3934    1.3463   29.1020 C.ar    1  UNL1       -0.0205
      6 C           0.0736    1.0804   28.4406 C.ar    1  UNL1       -0.0045
      7 C          -0.6554    2.1928   27.7469 C.ar    1  UNL1       -0.0032
      8 C          -0.7934    4.6836   27.0210 C.3     1  UNL1        0.0991
      9 C          -4.8549    3.9404   25.2315 C.3     1  UNL1        0.0743
     10 C          -4.7356    4.6057   26.5706 C.3     1  UNL1        0.0369
     11 C          -3.3818    4.8534   27.1671 C.3     1  UNL1        0.0741
     12 N          -2.1472    4.4359   26.4245 N.3     1  UNL1       -0.2689
     13 C          -2.2665    3.7706   25.0854 C.3     1  UNL1        0.0741
     14 C          -3.6203    3.5229   24.4889 C.3     1  UNL1        0.0369
     15 C          -8.4226    4.6019   23.6242 C.3     1  UNL1        0.0946
     16 C          -7.0688    4.8496   24.2207 C.2     1  UNL1        0.2229
     17 O          -6.5751    6.2543   24.4027 O.2     1  UNL1       -0.2751
     18 N          -6.2087    3.6927   24.6351 N.am    1  UNL1       -0.3059
     19 H          -6.5328    2.7708   24.5156 H       1  UNL1        0.1494
     20 C           2.8331   -0.8136   28.9909 C.3     1  UNL1        0.0944
     21 N           2.7972   -0.7605   27.4923 N.am    1  UNL1       -0.3005
     22 C           3.9058   -1.3788   26.6931 C.2     1  UNL1        0.2459
     23 O           5.0504   -2.0502   27.3926 O.2     1  UNL1       -0.2701
     24 H           2.0460   -0.3198   27.0332 H       1  UNL1        0.1497
     25 C           3.8699   -1.3257   25.1945 C.ar    1  UNL1        0.0534
     26 C           4.7658   -2.2208   24.3907 C.ar    1  UNL1        0.0045
     27 C           4.7299   -2.1677   22.8920 C.ar    1  UNL1        0.0001
     28 C           3.7982   -1.2195   22.1972 C.ar    1  UNL1        0.0000
     29 C           2.9023   -0.3243   23.0011 C.ar    1  UNL1        0.0001
     30 C           2.9382   -0.3774   24.4997 C.ar    1  UNL1        0.0045
     31 C           3.7623   -1.1663   20.6986 C.ar    1  UNL1        0.0001
     32 C           3.3164    0.0856   20.0029 C.ar    1  UNL1        0.0023
     33 C           3.2805    0.1387   18.5043 C.ar    1  UNL1        0.0296
     34 C           3.6905   -1.0601   17.7013 C.ar    1  UNL1        0.1401
     35 F           3.6546   -1.0069   16.2027 F       1  UNL1       -0.2042
     36 C           4.1363   -2.3120   18.3969 C.ar    1  UNL1        0.0296
     37 C           4.1723   -2.3651   19.8956 C.ar    1  UNL1        0.0023
@<TRIPOS>BOND
     1    15    16    1
     2    16    17    2
     3    16    18   am
     4    18     9    1
     5     9    10    1
     6    10    11    1
     7    11    12    1
     8    12     8    1
     9     8     2    1
    10     2     3   ar
    11     3     4   ar
    12     4     5   ar
    13     5     1    1
    14     1    20    1
    15    20    21    1
    16    21    22   am
    17    22    23    2
    18    22    25    1
    19    25    26   ar
    20    26    27   ar
    21    27    28   ar
    22    28    31    1
    23    31    32   ar
    24    32    33   ar
    25    33    34   ar
    26    34    35    1
    27    34    36   ar
    28    36    37   ar
    29    28    29   ar
    30    29    30   ar
    31     5     6   ar
    32     6     7   ar
    33    12    13    1
    34    13    14    1
    35    14     9    1
    36     7     2   ar
    37    30    25   ar
    38    37    31   ar
    39    18    19    1
    40    21    24    1
