@<TRIPOS>MOLECULE
*****
 16 17 0 0 0
SMALL
GASTEIGER

@<TRIPOS>ATOM
      1 C          -7.3943  -18.9201   21.1103 C.2     1  UNL1        0.1898
      2 N          -6.5362  -18.7590   19.8906 N.2     1  UNL1       -0.2199
      3 C          -5.1023  -18.8851   20.3125 C.2     1  UNL1        0.1003
      4 C          -3.8187  -18.8131   19.5399 C.2     1  UNL1        0.0569
      5 C          -2.5069  -18.9802   20.2478 C.2     1  UNL1        0.1364
      6 C          -2.4787  -19.2191   21.7284 C.2     1  UNL1        0.0172
      7 C          -3.7623  -19.2911   22.5010 C.3     1  UNL1        0.0765
      8 C          -5.0741  -19.1241   21.7931 C.2     1  UNL1        0.0833
      9 N          -6.4906  -19.1457   22.2861 N.2     1  UNL1       -0.2238
     10 O          -1.2231  -18.9082   19.4752 O.2     1  UNL1       -0.4717
     11 C          -0.1841  -17.8898   19.8403 C.3     1  UNL1        0.2525
     12 S          -8.8928  -18.8652   21.1477 S.3     1  UNL1       -0.0757
     13 C          -9.6432  -19.5899   22.2255 C.3     1  UNL1        0.0652
     14 C         -11.1373  -19.4811   22.3022 C.3     1  UNL1        0.0121
     15 C         -12.9406  -17.7626   23.0405 C.3     1  UNL1        0.0000
     16 C         -11.7744  -18.6456   23.3728 C.3     1  UNL1        0.0009
@<TRIPOS>BOND
     1    15    16    1
     2    16    14    1
     3    14    13    1
     4    13    12    1
     5    12     1    1
     6     1     2    2
     7     2     3    1
     8     3     4    2
     9     4     5    1
    10     5    10    1
    11    10    11    1
    12     5     6    2
    13     6     7    1
    14     7     8    1
    15     8     9    2
    16     9     1    1
    17     8     3    1
@<TRIPOS>MOLECULE
*****
 16 17 0 0 0
SMALL
GASTEIGER

@<TRIPOS>ATOM
      1 C          -7.4508  -18.3218   22.5083 C.2     1  UNL1        0.1898
      2 N          -6.0721  -17.7777   22.7393 N.2     1  UNL1       -0.2199
      3 C          -5.1086  -18.5996   21.9355 C.2     1  UNL1        0.1003
      4 C          -3.6194  -18.5260   21.7723 C.2     1  UNL1        0.0569
      5 C          -2.9133  -19.5045   20.8812 C.2     1  UNL1        0.1364
      6 C          -3.6965  -20.5565   20.1534 C.2     1  UNL1        0.0172
      7 C          -5.1857  -20.6302   20.3166 C.3     1  UNL1        0.0765
      8 C          -5.8918  -19.6517   21.2076 C.2     1  UNL1        0.0833
      9 N          -7.3393  -19.4800   21.5617 N.2     1  UNL1       -0.2238
     10 O          -1.4240  -19.4308   20.7180 O.2     1  UNL1       -0.4717
     11 C          -0.8107  -18.3156   19.9242 C.3     1  UNL1        0.2525
     12 S          -8.7183  -17.7994   23.1170 S.3     1  UNL1       -0.0757
     13 C          -9.6645  -18.7401   23.8022 C.3     1  UNL1        0.0652
     14 C         -10.9563  -19.1187   23.1404 C.3     1  UNL1        0.0121
     15 C         -10.8741  -19.6858   20.6063 C.3     1  UNL1        0.0000
     16 C         -10.9638  -20.1329   22.0353 C.3     1  UNL1        0.0009
@<TRIPOS>BOND
     1    15    16    1
     2    16    14    1
     3    14    13    1
     4    13    12    1
     5    12     1    1
     6     1     2    2
     7     2     3    1
     8     3     4    2
     9     4     5    1
    10     5    10    1
    11    10    11    1
    12     5     6    2
    13     6     7    1
    14     7     8    1
    15     8     9    2
    16     9     1    1
    17     8     3    1
@<TRIPOS>MOLECULE
*****
 16 17 0 0 0
SMALL
GASTEIGER

@<TRIPOS>ATOM
      1 C          -7.9849  -19.1999   21.6729 C.2     1  UNL1        0.1898
      2 N          -8.7707  -19.1913   22.9506 N.2     1  UNL1       -0.2199
      3 C         -10.1429  -18.6669   22.6474 C.2     1  UNL1        0.1003
      4 C         -11.3437  -18.4359   23.5161 C.2     1  UNL1        0.0569
      5 C         -12.6068  -17.8894   22.9197 C.2     1  UNL1        0.1364
      6 C         -12.6692  -17.5738   21.4546 C.2     1  UNL1        0.0172
      7 C         -11.4684  -17.8047   20.5859 C.3     1  UNL1        0.0765
      8 C         -10.2052  -18.3513   21.1823 C.2     1  UNL1        0.0833
      9 N          -8.8715  -18.6807   20.5801 N.2     1  UNL1       -0.2238
     10 O         -13.8077  -17.6584   23.7884 O.2     1  UNL1       -0.4717
     11 C         -14.0077  -18.4820   25.0260 C.3     1  UNL1        0.2525
     12 S          -6.5623  -19.6487   21.5157 S.3     1  UNL1       -0.0757
     13 C          -5.8159  -19.3463   20.2503 C.3     1  UNL1        0.0652
     14 C          -4.4653  -19.9540   20.0126 C.3     1  UNL1        0.0121
     15 C          -2.4409  -19.7532   21.6287 C.3     1  UNL1        0.0000
     16 C          -3.2290  -19.2337   20.4629 C.3     1  UNL1        0.0009
@<TRIPOS>BOND
     1    15    16    1
     2    16    14    1
     3    14    13    1
     4    13    12    1
     5    12     1    1
     6     1     2    2
     7     2     3    1
     8     3     4    2
     9     4     5    1
    10     5    10    1
    11    10    11    1
    12     5     6    2
    13     6     7    1
    14     7     8    1
    15     8     9    2
    16     9     1    1
    17     8     3    1
@<TRIPOS>MOLECULE
*****
 16 17 0 0 0
SMALL
GASTEIGER

@<TRIPOS>ATOM
      1 C          -7.6317  -17.6863   22.6216 C.2     1  UNL1        0.1898
      2 N          -6.1926  -17.3789   22.9118 N.2     1  UNL1       -0.2199
      3 C          -5.3462  -18.3271   22.1152 C.2     1  UNL1        0.1003
      4 C          -3.8597  -18.4924   22.0013 C.2     1  UNL1        0.0569
      5 C          -3.2894  -19.5512   21.1049 C.2     1  UNL1        0.1364
      6 C          -4.2055  -20.4447   20.3224 C.2     1  UNL1        0.0172
      7 C          -5.6920  -20.2795   20.4363 C.3     1  UNL1        0.0765
      8 C          -6.2624  -19.2207   21.3327 C.2     1  UNL1        0.0833
      9 N          -7.6749  -18.8246   21.6457 N.2     1  UNL1       -0.2238
     10 O          -1.8028  -19.7166   20.9910 O.2     1  UNL1       -0.4717
     11 C          -0.9868  -18.6858   20.2688 C.3     1  UNL1        0.2525
     12 S          -8.8193  -16.9796   23.2049 S.3     1  UNL1       -0.0757
     13 C          -8.9928  -16.9076   24.6931 C.3     1  UNL1        0.0652
     14 C          -8.6429  -15.6483   25.4290 C.3     1  UNL1        0.0121
     15 C          -6.7825  -15.4891   27.2355 C.3     1  UNL1        0.0000
     16 C          -8.2190  -15.7127   26.8665 C.3     1  UNL1        0.0009
@<TRIPOS>BOND
     1    15    16    1
     2    16    14    1
     3    14    13    1
     4    13    12    1
     5    12     1    1
     6     1     2    2
     7     2     3    1
     8     3     4    2
     9     4     5    1
    10     5    10    1
    11    10    11    1
    12     5     6    2
    13     6     7    1
    14     7     8    1
    15     8     9    2
    16     9     1    1
    17     8     3    1
@<TRIPOS>MOLECULE
*****
 16 17 0 0 0
SMALL
GASTEIGER

@<TRIPOS>ATOM
      1 C          -6.1497  -19.2484   21.4194 C.2     1  UNL1        0.1898
      2 N          -7.0925  -18.1757   20.9605 N.2     1  UNL1       -0.2199
      3 C          -8.4251  -18.4239   21.6028 C.2     1  UNL1        0.1003
      4 C          -9.7316  -17.6918   21.5188 C.2     1  UNL1        0.0569
      5 C         -10.9190  -18.1859   22.2908 C.2     1  UNL1        0.1364
      6 C         -10.7999  -19.4119   23.1467 C.2     1  UNL1        0.0172
      7 C          -9.4934  -20.1439   23.2307 C.3     1  UNL1        0.0765
      8 C          -8.3060  -19.6499   22.4587 C.2     1  UNL1        0.0833
      9 N          -6.8997  -20.1595   22.3454 N.2     1  UNL1       -0.2238
     10 O         -12.2256  -17.4538   22.2069 O.2     1  UNL1       -0.4717
     11 C         -12.2693  -15.9701   22.4234 C.3     1  UNL1        0.2525
     12 S          -4.7098  -19.3858   21.0222 S.3     1  UNL1       -0.0757
     13 C          -4.2541  -18.9059   19.6761 C.3     1  UNL1        0.0652
     14 C          -2.7937  -18.9097   19.3335 C.3     1  UNL1        0.0121
     15 C          -0.4811  -17.8062   19.7627 C.3     1  UNL1        0.0000
     16 C          -1.9640  -17.6832   19.5729 C.3     1  UNL1        0.0009
@<TRIPOS>BOND
     1    15    16    1
     2    16    14    1
     3    14    13    1
     4    13    12    1
     5    12     1    1
     6     1     2    2
     7     2     3    1
     8     3     4    2
     9     4     5    1
    10     5    10    1
    11    10    11    1
    12     5     6    2
    13     6     7    1
    14     7     8    1
    15     8     9    2
    16     9     1    1
    17     8     3    1
@<TRIPOS>MOLECULE
*****
 16 17 0 0 0
SMALL
GASTEIGER

@<TRIPOS>ATOM
      1 C          -5.8771  -19.3008   21.0315 C.2     1  UNL1        0.1898
      2 N          -6.9946  -18.5561   20.3632 N.2     1  UNL1       -0.2199
      3 C          -8.2488  -18.7991   21.1492 C.2     1  UNL1        0.1003
      4 C          -9.6584  -18.3211   20.9631 C.2     1  UNL1        0.0569
      5 C         -10.7256  -18.7380   21.9311 C.2     1  UNL1        0.1364
      6 C         -10.3833  -19.6329   23.0852 C.2     1  UNL1        0.0172
      7 C          -8.9738  -20.1109   23.2713 C.3     1  UNL1        0.0765
      8 C          -7.9065  -19.6940   22.3033 C.2     1  UNL1        0.0833
      9 N          -6.4407  -20.0040   22.2305 N.2     1  UNL1       -0.2238
     10 O         -12.1353  -18.2600   21.7450 O.2     1  UNL1       -0.4717
     11 C         -12.3961  -16.8992   21.1704 C.3     1  UNL1        0.2525
     12 S          -4.4471  -19.3360   20.5800 S.3     1  UNL1       -0.0757
     13 C          -3.3439  -19.4433   21.5907 C.3     1  UNL1        0.0652
     14 C          -2.9276  -18.2361   22.3776 C.3     1  UNL1        0.0121
     15 C          -4.6071  -16.7155   23.6493 C.3     1  UNL1        0.0000
     16 C          -3.6555  -17.8750   23.6385 C.3     1  UNL1        0.0009
@<TRIPOS>BOND
     1    15    16    1
     2    16    14    1
     3    14    13    1
     4    13    12    1
     5    12     1    1
     6     1     2    2
     7     2     3    1
     8     3     4    2
     9     4     5    1
    10     5    10    1
    11    10    11    1
    12     5     6    2
    13     6     7    1
    14     7     8    1
    15     8     9    2
    16     9     1    1
    17     8     3    1
@<TRIPOS>MOLECULE
*****
 16 17 0 0 0
SMALL
GASTEIGER

@<TRIPOS>ATOM
      1 C          -8.9082  -16.9125   22.6849 C.2     1  UNL1        0.1898
      2 N          -8.2801  -18.1286   22.0712 N.2     1  UNL1       -0.2199
      3 C          -6.8170  -18.1114   22.4012 C.2     1  UNL1        0.1003
      4 C          -5.7006  -19.0542   22.0628 C.2     1  UNL1        0.0569
      5 C          -4.3079  -18.7703   22.5421 C.2     1  UNL1        0.1364
      6 C          -4.0316  -17.5434   23.3598 C.2     1  UNL1        0.0172
      7 C          -5.1481  -16.6006   23.6982 C.3     1  UNL1        0.0765
      8 C          -6.5407  -16.8845   23.2189 C.2     1  UNL1        0.0833
      9 N          -7.8332  -16.1436   23.3942 N.2     1  UNL1       -0.2238
     10 O          -3.1914  -19.7131   22.2037 O.2     1  UNL1       -0.4717
     11 C          -2.3966  -19.5142   20.9472 C.3     1  UNL1        0.2525
     12 S         -10.3569  -16.5321   22.6036 S.3     1  UNL1       -0.0757
     13 C         -11.2657  -17.2410   21.6437 C.3     1  UNL1        0.0652
     14 C         -12.5380  -17.8641   22.1365 C.3     1  UNL1        0.0121
     15 C         -14.1027  -18.0961   24.1976 C.3     1  UNL1        0.0000
     16 C         -12.7266  -18.1259   23.6015 C.3     1  UNL1        0.0009
@<TRIPOS>BOND
     1    15    16    1
     2    16    14    1
     3    14    13    1
     4    13    12    1
     5    12     1    1
     6     1     2    2
     7     2     3    1
     8     3     4    2
     9     4     5    1
    10     5    10    1
    11    10    11    1
    12     5     6    2
    13     6     7    1
    14     7     8    1
    15     8     9    2
    16     9     1    1
    17     8     3    1
@<TRIPOS>MOLECULE
*****
 16 17 0 0 0
SMALL
GASTEIGER

@<TRIPOS>ATOM
      1 C         -10.4050  -17.4760   23.4069 C.2     1  UNL1        0.1898
      2 N          -9.1783  -18.1424   22.8581 N.2     1  UNL1       -0.2199
      3 C          -7.9916  -17.2993   23.2200 C.2     1  UNL1        0.1003
      4 C          -6.5256  -17.4595   22.9460 C.2     1  UNL1        0.0569
      5 C          -5.5529  -16.4323   23.4445 C.2     1  UNL1        0.1364
      6 C          -6.0461  -15.2448   24.2169 C.2     1  UNL1        0.0172
      7 C          -7.5121  -15.0847   24.4910 C.3     1  UNL1        0.0765
      8 C          -8.4849  -16.1119   23.9925 C.2     1  UNL1        0.0833
      9 N          -9.9764  -16.2211   24.1080 N.2     1  UNL1       -0.2238
     10 O          -4.0868  -16.5924   23.1705 O.2     1  UNL1       -0.4717
     11 C          -3.4672  -17.9585   23.1780 C.3     1  UNL1        0.2525
     12 S         -11.8131  -17.9766   23.2773 S.3     1  UNL1       -0.0757
     13 C         -12.4601  -18.0544   21.9263 C.3     1  UNL1        0.0652
     14 C         -12.0384  -17.1128   20.8374 C.3     1  UNL1        0.0121
     15 C         -10.6720  -19.0173   19.7167 C.3     1  UNL1        0.0000
     16 C         -11.1777  -17.6051   19.7118 C.3     1  UNL1        0.0009
@<TRIPOS>BOND
     1    15    16    1
     2    16    14    1
     3    14    13    1
     4    13    12    1
     5    12     1    1
     6     1     2    2
     7     2     3    1
     8     3     4    2
     9     4     5    1
    10     5    10    1
    11    10    11    1
    12     5     6    2
    13     6     7    1
    14     7     8    1
    15     8     9    2
    16     9     1    1
    17     8     3    1
@<TRIPOS>MOLECULE
*****
 16 17 0 0 0
SMALL
GASTEIGER

@<TRIPOS>ATOM
      1 C          -5.3967  -19.6372   20.7535 C.2     1  UNL1        0.1898
      2 N          -5.4966  -18.5508   21.7828 N.2     1  UNL1       -0.2199
      3 C          -6.9507  -18.3002   22.0528 C.2     1  UNL1        0.1003
      4 C          -7.6506  -17.3441   22.9726 C.2     1  UNL1        0.0569
      5 C          -9.1493  -17.3197   23.0298 C.2     1  UNL1        0.1364
      6 C          -9.9481  -18.2513   22.1673 C.2     1  UNL1        0.0172
      7 C          -9.2482  -19.2074   21.2475 C.3     1  UNL1        0.0765
      8 C          -7.7495  -19.2318   21.1902 C.2     1  UNL1        0.0833
      9 N          -6.7891  -20.0581   20.3872 N.2     1  UNL1       -0.2238
     10 O          -9.8492  -16.3636   23.9496 O.2     1  UNL1       -0.4717
     11 C          -9.0628  -15.5867   24.9636 C.3     1  UNL1        0.2525
     12 S          -4.1274  -20.2034   20.1894 S.3     1  UNL1       -0.0757
     13 C          -2.8427  -20.0701   20.9521 C.3     1  UNL1        0.0652
     14 C          -1.9620  -18.8755   20.7350 C.3     1  UNL1        0.0121
     15 C          -1.8170  -17.7047   18.4202 C.3     1  UNL1        0.0000
     16 C          -2.3954  -17.7838   19.8019 C.3     1  UNL1        0.0009
@<TRIPOS>BOND
     1    15    16    1
     2    16    14    1
     3    14    13    1
     4    13    12    1
     5    12     1    1
     6     1     2    2
     7     2     3    1
     8     3     4    2
     9     4     5    1
    10     5    10    1
    11    10    11    1
    12     5     6    2
    13     6     7    1
    14     7     8    1
    15     8     9    2
    16     9     1    1
    17     8     3    1
