@<TRIPOS>MOLECULE
*****
 31 34 0 0 0
SMALL
GASTEIGER

@<TRIPOS>ATOM
      1 N          -8.3887  -17.2823   23.6357 N.am    1  UNL1       -0.2683
      2 C          -7.4631  -18.0501   22.7391 C.2     1  UNL1        0.3047
      3 O          -7.9883  -19.1913   21.9194 O.2     1  UNL1       -0.2525
      4 N          -6.0124  -17.6767   22.6621 N.am    1  UNL1       -0.2863
      5 H          -8.0440  -16.5333   24.1737 H       1  UNL1        0.1564
      6 H          -5.6677  -16.9277   23.2001 H       1  UNL1        0.1512
      7 C          -5.0869  -18.4445   21.7655 C.3     1  UNL1        0.1020
      8 C          -5.5230  -19.7567   21.1844 C.3     1  UNL1        0.0642
      9 C          -4.5975  -20.5245   20.2877 C.3     1  UNL1        0.1353
     10 C          -4.0828  -21.6127   19.3927 C.3     1  UNL1        0.0437
     11 C          -5.7803  -21.4469   20.2923 C.3     1  UNL1        0.0437
     12 O          -3.2359  -19.9800   19.9723 O.3     1  UNL1       -0.4804
     13 C          -2.7998  -18.6678   20.5535 C.ar    1  UNL1        0.1652
     14 C          -3.7252  -17.9000   21.4500 C.ar    1  UNL1        0.0320
     15 C          -3.2891  -16.5877   22.0312 C.ar    1  UNL1        0.0028
     16 C          -1.9275  -16.0432   21.7158 C.ar    1  UNL1        0.0319
     17 C          -1.0021  -16.8110   20.8192 C.ar    1  UNL1        0.1704
     18 F           0.3596  -16.2665   20.5037 F       1  UNL1       -0.2017
     19 C          -1.4382  -18.1233   20.2380 C.ar    1  UNL1        0.2007
     20 F          -0.5126  -18.8911   19.3414 F       1  UNL1       -0.1986
     21 C         -10.7081  -15.2076   19.2124 C.3     1  UNL1        0.0521
     22 C         -11.2163  -16.0063   20.3759 C.ar    1  UNL1        0.0594
     23 C         -10.2738  -16.4316   21.4625 C.ar    1  UNL1        0.0160
     24 C         -10.7820  -17.2304   22.6260 C.ar    1  UNL1        0.0162
     25 C          -9.8394  -17.6557   23.7126 C.ar    1  UNL1        0.0516
     26 C         -10.3476  -18.4544   24.8762 C.ar    1  UNL1        0.0147
     27 C         -11.7984  -18.8278   24.9530 C.ar    1  UNL1        0.0013
     28 C         -12.7409  -18.4025   23.8665 C.ar    1  UNL1        0.0016
     29 C         -12.2327  -17.6038   22.7029 C.ar    1  UNL1        0.0204
     30 C         -13.1752  -17.1784   21.6163 C.ar    1  UNL1        0.0984
     31 N         -12.6670  -16.3797   20.4528 N.ar    1  UNL1       -0.2481
@<TRIPOS>BOND
     1    21    22    1
     2    22    23   ar
     3    23    24   ar
     4    24    25   ar
     5    25     1    1
     6     1     2   am
     7     2     3    2
     8     2     4   am
     9     7     4    1
    10     7     8    1
    11     8     9    1
    12     9    10    1
    13     9    11    1
    14     9    12    1
    15    12    13    1
    16    13    14   ar
    17    14    15   ar
    18    15    16   ar
    19    16    17   ar
    20    17    18    1
    21    17    19   ar
    22    19    20    1
    23    25    26   ar
    24    26    27   ar
    25    27    28   ar
    26    28    29   ar
    27    29    30   ar
    28    30    31   ar
    29    31    22   ar
    30    29    24   ar
    31    14     7    1
    32    19    13   ar
    33     1     5    1
    34     4     6    1
@<TRIPOS>MOLECULE
*****
 31 34 0 0 0
SMALL
GASTEIGER

@<TRIPOS>ATOM
      1 N           1.7194    2.2446   20.2360 N.am    1  UNL1       -0.2683
      2 C           0.2438    2.2689   20.5046 C.2     1  UNL1        0.3047
      3 O          -0.5793    1.0347   20.2826 O.2     1  UNL1       -0.2525
      4 N          -0.4087    3.5272   20.9953 N.am    1  UNL1       -0.2863
      5 H           2.2596    3.0547   20.3817 H       1  UNL1        0.1564
      6 H           0.1316    4.3372   21.1411 H       1  UNL1        0.1512
      7 C          -1.8842    3.5514   21.2640 C.3     1  UNL1        0.1020
      8 C          -2.8546    3.5646   20.1203 C.3     1  UNL1        0.0642
      9 C          -4.3302    3.5888   20.3890 C.3     1  UNL1        0.1353
     10 C          -5.8086    3.6120   20.1367 C.3     1  UNL1        0.0437
     11 C          -4.3386    3.5860   18.8890 C.3     1  UNL1        0.0437
     12 O          -4.8353    3.5997   21.8013 O.3     1  UNL1       -0.4804
     13 C          -3.8648    3.5864   22.9450 C.ar    1  UNL1        0.1652
     14 C          -2.3893    3.5622   22.6764 C.ar    1  UNL1        0.0320
     15 C          -1.4188    3.5490   23.8201 C.ar    1  UNL1        0.0028
     16 C          -1.9239    3.5599   25.2324 C.ar    1  UNL1        0.0319
     17 C          -3.3994    3.5840   25.5011 C.ar    1  UNL1        0.1704
     18 F          -3.9045    3.5949   26.9135 F       1  UNL1       -0.2017
     19 C          -4.3699    3.5973   24.3574 C.ar    1  UNL1        0.2007
     20 F          -5.8455    3.6214   24.6261 F       1  UNL1       -0.1986
     21 C           3.1301   -0.5352   24.6554 C.3     1  UNL1        0.0521
     22 C           3.2668   -0.7840   23.1826 C.ar    1  UNL1        0.0594
     23 C           2.7510    0.2255   22.2004 C.ar    1  UNL1        0.0160
     24 C           2.8876   -0.0233   20.7275 C.ar    1  UNL1        0.0162
     25 C           2.3718    0.9863   19.7453 C.ar    1  UNL1        0.0516
     26 C           2.5085    0.7375   18.2724 C.ar    1  UNL1        0.0147
     27 C           3.1609   -0.5210   17.7817 C.ar    1  UNL1        0.0013
     28 C           3.6767   -1.5305   18.7639 C.ar    1  UNL1        0.0016
     29 C           3.5401   -1.2817   20.2368 C.ar    1  UNL1        0.0204
     30 C           4.0559   -2.2912   21.2190 C.ar    1  UNL1        0.0984
     31 N           3.9192   -2.0424   22.6919 N.ar    1  UNL1       -0.2481
@<TRIPOS>BOND
     1    21    22    1
     2    22    23   ar
     3    23    24   ar
     4    24    25   ar
     5    25     1    1
     6     1     2   am
     7     2     3    2
     8     2     4   am
     9     7     4    1
    10     7     8    1
    11     8     9    1
    12     9    10    1
    13     9    11    1
    14     9    12    1
    15    12    13    1
    16    13    14   ar
    17    14    15   ar
    18    15    16   ar
    19    16    17   ar
    20    17    18    1
    21    17    19   ar
    22    19    20    1
    23    25    26   ar
    24    26    27   ar
    25    27    28   ar
    26    28    29   ar
    27    29    30   ar
    28    30    31   ar
    29    31    22   ar
    30    29    24   ar
    31    14     7    1
    32    19    13   ar
    33     1     5    1
    34     4     6    1
@<TRIPOS>MOLECULE
*****
 31 34 0 0 0
SMALL
GASTEIGER

@<TRIPOS>ATOM
      1 N           1.7611    2.4423   20.4218 N.am    1  UNL1       -0.2683
      2 C           0.3220    2.4469   20.8449 C.2     1  UNL1        0.3047
      3 O          -0.5082    1.2067   20.6935 O.2     1  UNL1       -0.2525
      4 N          -0.2869    3.6915   21.4194 N.am    1  UNL1       -0.2863
      5 H           2.3060    3.2562   20.5212 H       1  UNL1        0.1564
      6 H           0.2579    4.5054   21.5188 H       1  UNL1        0.1512
      7 C          -1.7260    3.6960   21.8425 C.3     1  UNL1        0.1020
      8 C          -2.0807    3.5891   23.2960 C.3     1  UNL1        0.0642
      9 C          -3.5199    3.5936   23.7191 C.3     1  UNL1        0.1353
     10 C          -4.7281    3.5547   24.6072 C.3     1  UNL1        0.0437
     11 C          -2.8552    3.4687   25.0580 C.3     1  UNL1        0.0437
     12 O          -4.6042    3.7050   22.6887 O.3     1  UNL1       -0.4804
     13 C          -4.2494    3.8119   21.2351 C.ar    1  UNL1        0.1652
     14 C          -2.8104    3.8074   20.8121 C.ar    1  UNL1        0.0320
     15 C          -2.4556    3.9144   19.3585 C.ar    1  UNL1        0.0028
     16 C          -3.5399    4.0258   18.3281 C.ar    1  UNL1        0.0319
     17 C          -4.9790    4.0303   18.7512 C.ar    1  UNL1        0.1704
     18 F          -6.0633    4.1417   17.7207 F       1  UNL1       -0.2017
     19 C          -5.3337    3.9234   20.2047 C.ar    1  UNL1        0.2007
     20 F          -6.7729    3.9279   20.6278 F       1  UNL1       -0.1986
     21 C           3.2061   -0.6088   24.6471 C.3     1  UNL1        0.0521
     22 C           3.3015   -0.7795   23.1599 C.ar    1  UNL1        0.0594
     23 C           2.7881    0.2944   22.2472 C.ar    1  UNL1        0.0160
     24 C           2.8835    0.1237   20.7600 C.ar    1  UNL1        0.0162
     25 C           2.3700    1.1977   19.8473 C.ar    1  UNL1        0.0516
     26 C           2.4654    1.0270   18.3601 C.ar    1  UNL1        0.0147
     27 C           3.0744   -0.2178   17.7856 C.ar    1  UNL1        0.0013
     28 C           3.5878   -1.2917   18.6983 C.ar    1  UNL1        0.0016
     29 C           3.4924   -1.1209   20.1855 C.ar    1  UNL1        0.0204
     30 C           4.0058   -2.1948   21.0982 C.ar    1  UNL1        0.0984
     31 N           3.9104   -2.0241   22.5854 N.ar    1  UNL1       -0.2481
@<TRIPOS>BOND
     1    21    22    1
     2    22    23   ar
     3    23    24   ar
     4    24    25   ar
     5    25     1    1
     6     1     2   am
     7     2     3    2
     8     2     4   am
     9     7     4    1
    10     7     8    1
    11     8     9    1
    12     9    10    1
    13     9    11    1
    14     9    12    1
    15    12    13    1
    16    13    14   ar
    17    14    15   ar
    18    15    16   ar
    19    16    17   ar
    20    17    18    1
    21    17    19   ar
    22    19    20    1
    23    25    26   ar
    24    26    27   ar
    25    27    28   ar
    26    28    29   ar
    27    29    30   ar
    28    30    31   ar
    29    31    22   ar
    30    29    24   ar
    31    14     7    1
    32    19    13   ar
    33     1     5    1
    34     4     6    1
@<TRIPOS>MOLECULE
*****
 31 34 0 0 0
SMALL
GASTEIGER

@<TRIPOS>ATOM
      1 N           6.4822   -1.9952   22.2013 N.am    1  UNL1       -0.2683
      2 C           6.4980   -3.1412   23.1691 C.2     1  UNL1        0.3047
      3 O           5.6303   -4.3403   22.9258 O.2     1  UNL1       -0.2525
      4 N           7.3816   -3.0880   24.3800 N.am    1  UNL1       -0.2863
      5 H           7.0517   -1.2082   22.3609 H       1  UNL1        0.1564
      6 H           7.9511   -2.3010   24.5397 H       1  UNL1        0.1512
      7 C           7.3974   -4.2339   25.3478 C.3     1  UNL1        0.1020
      8 C           7.7505   -5.6121   24.8725 C.3     1  UNL1        0.0642
      9 C           7.7663   -6.7581   25.8403 C.3     1  UNL1        0.1353
     10 C           7.9175   -8.1530   26.3708 C.3     1  UNL1        0.0437
     11 C           8.1561   -7.4748   24.5815 C.3     1  UNL1        0.0437
     12 O           7.4290   -6.5258   27.2833 O.3     1  UNL1       -0.4804
     13 C           7.0760   -5.1476   27.7586 C.ar    1  UNL1        0.1652
     14 C           7.0601   -4.0017   26.7908 C.ar    1  UNL1        0.0320
     15 C           6.7071   -2.6235   27.2661 C.ar    1  UNL1        0.0028
     16 C           6.3698   -2.3912   28.7091 C.ar    1  UNL1        0.0319
     17 C           6.3856   -3.5372   29.6768 C.ar    1  UNL1        0.1704
     18 F           6.0484   -3.3049   31.1199 F       1  UNL1       -0.2017
     19 C           6.7387   -4.9154   29.2016 C.ar    1  UNL1        0.2007
     20 F           6.7545   -6.0613   30.1694 F       1  UNL1       -0.1986
     21 C           1.9322    0.5992   23.5492 C.3     1  UNL1        0.0521
     22 C           2.4070   -0.0893   22.3040 C.ar    1  UNL1        0.0594
     23 C           3.7654   -0.7246   22.2697 C.ar    1  UNL1        0.0160
     24 C           4.2402   -1.4131   21.0245 C.ar    1  UNL1        0.0162
     25 C           5.5986   -2.0484   20.9903 C.ar    1  UNL1        0.0516
     26 C           6.0734   -2.7369   19.7451 C.ar    1  UNL1        0.0147
     27 C           5.1898   -2.7900   18.5341 C.ar    1  UNL1        0.0013
     28 C           3.8315   -2.1547   18.5684 C.ar    1  UNL1        0.0016
     29 C           3.3566   -1.4663   19.8136 C.ar    1  UNL1        0.0204
     30 C           1.9983   -0.8310   19.8478 C.ar    1  UNL1        0.0984
     31 N           1.5235   -0.1425   21.0930 N.ar    1  UNL1       -0.2481
@<TRIPOS>BOND
     1    21    22    1
     2    22    23   ar
     3    23    24   ar
     4    24    25   ar
     5    25     1    1
     6     1     2   am
     7     2     3    2
     8     2     4   am
     9     7     4    1
    10     7     8    1
    11     8     9    1
    12     9    10    1
    13     9    11    1
    14     9    12    1
    15    12    13    1
    16    13    14   ar
    17    14    15   ar
    18    15    16   ar
    19    16    17   ar
    20    17    18    1
    21    17    19   ar
    22    19    20    1
    23    25    26   ar
    24    26    27   ar
    25    27    28   ar
    26    28    29   ar
    27    29    30   ar
    28    30    31   ar
    29    31    22   ar
    30    29    24   ar
    31    14     7    1
    32    19    13   ar
    33     1     5    1
    34     4     6    1
@<TRIPOS>MOLECULE
*****
 31 34 0 0 0
SMALL
GASTEIGER

@<TRIPOS>ATOM
      1 N          -0.6424    3.6433   20.7347 N.am    1  UNL1       -0.2683
      2 C           0.1202    2.3553   20.6355 C.2     1  UNL1        0.3047
      3 O          -0.6161    1.0493   20.5913 O.2     1  UNL1       -0.2525
      4 N           1.6190    2.3736   20.5804 N.am    1  UNL1       -0.2863
      5 H          -0.1592    4.5005   20.7637 H       1  UNL1        0.1564
      6 H           2.1023    3.2308   20.6094 H       1  UNL1        0.1512
      7 C           2.3816    1.0857   20.4811 C.3     1  UNL1        0.1020
      8 C           2.7673    0.5442   19.1365 C.3     1  UNL1        0.0642
      9 C           3.5299   -0.7438   19.0373 C.3     1  UNL1        0.1353
     10 C           4.2482   -1.9135   18.4326 C.3     1  UNL1        0.0437
     11 C           3.4025   -0.4036   17.5819 C.3     1  UNL1        0.0437
     12 O           3.9067   -1.4901   20.2827 O.3     1  UNL1       -0.4804
     13 C           3.5209   -0.9486   21.6273 C.ar    1  UNL1        0.1652
     14 C           2.7584    0.3393   21.7265 C.ar    1  UNL1        0.0320
     15 C           2.3727    0.8808   23.0711 C.ar    1  UNL1        0.0028
     16 C           2.7495    0.1345   24.3165 C.ar    1  UNL1        0.0319
     17 C           3.5120   -1.1534   24.2172 C.ar    1  UNL1        0.1704
     18 F           3.8888   -1.8998   25.4626 F       1  UNL1       -0.2017
     19 C           3.8977   -1.6949   22.8726 C.ar    1  UNL1        0.2007
     20 F           4.6603   -2.9829   22.7734 F       1  UNL1       -0.1986
     21 C          -1.9484    3.4480   25.9794 C.3     1  UNL1        0.0521
     22 C          -2.7460    3.4831   24.7095 C.ar    1  UNL1        0.0594
     23 C          -2.0449    3.5365   23.3846 C.ar    1  UNL1        0.0160
     24 C          -2.8425    3.5717   22.1148 C.ar    1  UNL1        0.0162
     25 C          -2.1413    3.6250   20.7898 C.ar    1  UNL1        0.0516
     26 C          -2.9389    3.6602   19.5200 C.ar    1  UNL1        0.0147
     27 C          -4.4379    3.6419   19.5751 C.ar    1  UNL1        0.0013
     28 C          -5.1390    3.5886   20.9000 C.ar    1  UNL1        0.0016
     29 C          -4.3414    3.5534   22.1699 C.ar    1  UNL1        0.0204
     30 C          -5.0426    3.5001   23.4948 C.ar    1  UNL1        0.0984
     31 N          -4.2449    3.4649   24.7646 N.ar    1  UNL1       -0.2481
@<TRIPOS>BOND
     1    21    22    1
     2    22    23   ar
     3    23    24   ar
     4    24    25   ar
     5    25     1    1
     6     1     2   am
     7     2     3    2
     8     2     4   am
     9     7     4    1
    10     7     8    1
    11     8     9    1
    12     9    10    1
    13     9    11    1
    14     9    12    1
    15    12    13    1
    16    13    14   ar
    17    14    15   ar
    18    15    16   ar
    19    16    17   ar
    20    17    18    1
    21    17    19   ar
    22    19    20    1
    23    25    26   ar
    24    26    27   ar
    25    27    28   ar
    26    28    29   ar
    27    29    30   ar
    28    30    31   ar
    29    31    22   ar
    30    29    24   ar
    31    14     7    1
    32    19    13   ar
    33     1     5    1
    34     4     6    1
@<TRIPOS>MOLECULE
*****
 31 34 0 0 0
SMALL
GASTEIGER

@<TRIPOS>ATOM
      1 N          -5.8985  -18.9712   20.8625 N.am    1  UNL1       -0.2683
      2 C          -7.2078  -18.2995   21.1536 C.2     1  UNL1        0.3047
      3 O          -7.2810  -17.2158   22.1882 O.2     1  UNL1       -0.2525
      4 N          -8.4437  -18.7114   20.4102 N.am    1  UNL1       -0.2863
      5 H          -5.8504  -19.6824   20.1835 H       1  UNL1        0.1564
      6 H          -8.3956  -19.4227   19.7312 H       1  UNL1        0.1512
      7 C          -9.7529  -18.0397   20.7013 C.3     1  UNL1        0.1020
      8 C         -10.3201  -17.0488   19.7285 C.3     1  UNL1        0.0642
      9 C         -11.6294  -16.3771   20.0197 C.3     1  UNL1        0.1353
     10 C         -12.8251  -15.4872   19.8515 C.3     1  UNL1        0.0437
     11 C         -11.3027  -15.7489   18.6973 C.3     1  UNL1        0.0437
     12 O         -12.3713  -16.6963   21.2836 O.3     1  UNL1       -0.4804
     13 C         -11.8041  -17.6872   22.2565 C.ar    1  UNL1        0.1652
     14 C         -10.4949  -18.3589   21.9653 C.ar    1  UNL1        0.0320
     15 C          -9.9276  -19.3498   22.9381 C.ar    1  UNL1        0.0028
     16 C         -10.6696  -19.6690   24.2021 C.ar    1  UNL1        0.0319
     17 C         -11.9787  -18.9973   24.4932 C.ar    1  UNL1        0.1704
     18 F         -12.7208  -19.3164   25.7572 F       1  UNL1       -0.2017
     19 C         -12.5460  -18.0064   23.5204 C.ar    1  UNL1        0.2007
     20 F         -13.8553  -17.3347   23.8116 F       1  UNL1       -0.1986
     21 C          -2.1936  -17.8230   17.0935 C.3     1  UNL1        0.0521
     22 C          -2.1929  -17.8011   18.5933 C.ar    1  UNL1        0.0594
     23 C          -3.4280  -18.1911   19.3497 C.ar    1  UNL1        0.0160
     24 C          -3.4273  -18.1692   20.8496 C.ar    1  UNL1        0.0162
     25 C          -4.6626  -18.5592   21.6060 C.ar    1  UNL1        0.0516
     26 C          -4.6618  -18.5373   23.1058 C.ar    1  UNL1        0.0147
     27 C          -3.4258  -18.1253   23.8492 C.ar    1  UNL1        0.0013
     28 C          -2.1906  -17.7353   23.0928 C.ar    1  UNL1        0.0016
     29 C          -2.1914  -17.7573   21.5930 C.ar    1  UNL1        0.0204
     30 C          -0.9562  -17.3672   20.8366 C.ar    1  UNL1        0.0984
     31 N          -0.9569  -17.3892   19.3368 N.ar    1  UNL1       -0.2481
@<TRIPOS>BOND
     1    21    22    1
     2    22    23   ar
     3    23    24   ar
     4    24    25   ar
     5    25     1    1
     6     1     2   am
     7     2     3    2
     8     2     4   am
     9     7     4    1
    10     7     8    1
    11     8     9    1
    12     9    10    1
    13     9    11    1
    14     9    12    1
    15    12    13    1
    16    13    14   ar
    17    14    15   ar
    18    15    16   ar
    19    16    17   ar
    20    17    18    1
    21    17    19   ar
    22    19    20    1
    23    25    26   ar
    24    26    27   ar
    25    27    28   ar
    26    28    29   ar
    27    29    30   ar
    28    30    31   ar
    29    31    22   ar
    30    29    24   ar
    31    14     7    1
    32    19    13   ar
    33     1     5    1
    34     4     6    1
@<TRIPOS>MOLECULE
*****
 31 34 0 0 0
SMALL
GASTEIGER

@<TRIPOS>ATOM
      1 N           7.8727   -3.2717   23.3044 N.am    1  UNL1       -0.2683
      2 C           6.5365   -2.7726   22.8400 C.2     1  UNL1        0.3047
      3 O           5.3626   -3.7052   22.7929 O.2     1  UNL1       -0.2525
      4 N           6.3743   -1.3410   22.4229 N.am    1  UNL1       -0.2863
      5 H           8.6432   -2.6597   23.3353 H       1  UNL1        0.1564
      6 H           7.1447   -0.7289   22.4539 H       1  UNL1        0.1512
      7 C           5.0381   -0.8419   21.9586 C.3     1  UNL1        0.1020
      8 C           4.0458   -0.3183   22.9541 C.3     1  UNL1        0.0642
      9 C           2.7096    0.1808   22.4898 C.3     1  UNL1        0.1353
     10 C           1.3260    0.7580   22.5384 C.3     1  UNL1        0.0437
     11 C           2.5729    0.4059   23.9665 C.3     1  UNL1        0.0437
     12 O           2.3658    0.1562   21.0299 O.3     1  UNL1       -0.4804
     13 C           3.3581   -0.3675   20.0344 C.ar    1  UNL1        0.1652
     14 C           4.6942   -0.8665   20.4987 C.ar    1  UNL1        0.0320
     15 C           5.6866   -1.3902   19.5032 C.ar    1  UNL1        0.0028
     16 C           5.3428   -1.4148   18.0434 C.ar    1  UNL1        0.0319
     17 C           4.0066   -0.9157   17.5791 C.ar    1  UNL1        0.1704
     18 F           3.6627   -0.9403   16.1192 F       1  UNL1       -0.2017
     19 C           3.0143   -0.3921   18.5746 C.ar    1  UNL1        0.2007
     20 F           1.6781    0.1070   18.1102 F       1  UNL1       -0.1986
     21 C           6.3352   -3.5083   28.4841 C.3     1  UNL1        0.0521
     22 C           6.8412   -4.5229   27.5021 C.ar    1  UNL1        0.0594
     23 C           7.1851   -4.1059   26.1029 C.ar    1  UNL1        0.0160
     24 C           7.6911   -5.1205   25.1208 C.ar    1  UNL1        0.0162
     25 C           8.0349   -4.7034   23.7215 C.ar    1  UNL1        0.0516
     26 C           8.5410   -5.7180   22.7394 C.ar    1  UNL1        0.0147
     27 C           8.7032   -7.1497   23.1566 C.ar    1  UNL1        0.0013
     28 C           8.3594   -7.5667   24.5558 C.ar    1  UNL1        0.0016
     29 C           7.8533   -6.5521   25.5379 C.ar    1  UNL1        0.0204
     30 C           7.5095   -6.9691   26.9371 C.ar    1  UNL1        0.0984
     31 N           7.0035   -5.9545   27.9192 N.ar    1  UNL1       -0.2481
@<TRIPOS>BOND
     1    21    22    1
     2    22    23   ar
     3    23    24   ar
     4    24    25   ar
     5    25     1    1
     6     1     2   am
     7     2     3    2
     8     2     4   am
     9     7     4    1
    10     7     8    1
    11     8     9    1
    12     9    10    1
    13     9    11    1
    14     9    12    1
    15    12    13    1
    16    13    14   ar
    17    14    15   ar
    18    15    16   ar
    19    16    17   ar
    20    17    18    1
    21    17    19   ar
    22    19    20    1
    23    25    26   ar
    24    26    27   ar
    25    27    28   ar
    26    28    29   ar
    27    29    30   ar
    28    30    31   ar
    29    31    22   ar
    30    29    24   ar
    31    14     7    1
    32    19    13   ar
    33     1     5    1
    34     4     6    1
@<TRIPOS>MOLECULE
*****
 31 34 0 0 0
SMALL
GASTEIGER

@<TRIPOS>ATOM
      1 N           4.3337    0.3322   26.6618 N.am    1  UNL1       -0.2683
      2 C           4.6625   -1.0034   27.2604 C.2     1  UNL1        0.3047
      3 O           3.5807   -2.0235   27.4579 O.2     1  UNL1       -0.2525
      4 N           6.0730   -1.3187   27.6615 N.am    1  UNL1       -0.2863
      5 H           5.0438    1.0018   26.5322 H       1  UNL1        0.1564
      6 H           6.7831   -0.6492   27.5319 H       1  UNL1        0.1512
      7 C           6.4017   -2.6543   28.2600 C.3     1  UNL1        0.1020
      8 C           6.3994   -2.8295   29.7498 C.3     1  UNL1        0.0642
      9 C           6.7281   -4.1651   30.3483 C.3     1  UNL1        0.1353
     10 C           6.9712   -5.2256   31.3809 C.3     1  UNL1        0.0437
     11 C           6.4815   -3.3732   31.5981 C.3     1  UNL1        0.0437
     12 O           7.0591   -5.3254   29.4571 O.3     1  UNL1       -0.4804
     13 C           7.0615   -5.1501   27.9674 C.ar    1  UNL1        0.1652
     14 C           6.7328   -3.8146   27.3689 C.ar    1  UNL1        0.0320
     15 C           6.7351   -3.6393   25.8791 C.ar    1  UNL1        0.0028
     16 C           7.0661   -4.7995   24.9880 C.ar    1  UNL1        0.0319
     17 C           7.3948   -6.1351   25.5865 C.ar    1  UNL1        0.1704
     18 F           7.7258   -7.2954   24.6953 F       1  UNL1       -0.2017
     19 C           7.3925   -6.3103   27.0763 C.ar    1  UNL1        0.2007
     20 F           7.7212   -7.6459   27.6748 F       1  UNL1       -0.1986
     21 C           1.7135    1.5580   31.2315 C.3     1  UNL1        0.0521
     22 C           1.3106    1.4881   29.7883 C.ar    1  UNL1        0.0594
     23 C           2.3183    1.1028   28.7461 C.ar    1  UNL1        0.0160
     24 C           1.9154    1.0329   27.3029 C.ar    1  UNL1        0.0162
     25 C           2.9232    0.6476   26.2608 C.ar    1  UNL1        0.0516
     26 C           2.5204    0.5777   24.8176 C.ar    1  UNL1        0.0147
     27 C           1.1097    0.8931   24.4165 C.ar    1  UNL1        0.0013
     28 C           0.1021    1.2784   25.4587 C.ar    1  UNL1        0.0016
     29 C           0.5049    1.3483   26.9019 C.ar    1  UNL1        0.0204
     30 C          -0.5028    1.7336   27.9440 C.ar    1  UNL1        0.0984
     31 N          -0.0999    1.8035   29.3872 N.ar    1  UNL1       -0.2481
@<TRIPOS>BOND
     1    21    22    1
     2    22    23   ar
     3    23    24   ar
     4    24    25   ar
     5    25     1    1
     6     1     2   am
     7     2     3    2
     8     2     4   am
     9     7     4    1
    10     7     8    1
    11     8     9    1
    12     9    10    1
    13     9    11    1
    14     9    12    1
    15    12    13    1
    16    13    14   ar
    17    14    15   ar
    18    15    16   ar
    19    16    17   ar
    20    17    18    1
    21    17    19   ar
    22    19    20    1
    23    25    26   ar
    24    26    27   ar
    25    27    28   ar
    26    28    29   ar
    27    29    30   ar
    28    30    31   ar
    29    31    22   ar
    30    29    24   ar
    31    14     7    1
    32    19    13   ar
    33     1     5    1
    34     4     6    1
@<TRIPOS>MOLECULE
*****
 31 34 0 0 0
SMALL
GASTEIGER

@<TRIPOS>ATOM
      1 N           8.0511   -3.4161   22.9940 N.am    1  UNL1       -0.2683
      2 C           6.8400   -2.9984   22.2136 C.2     1  UNL1        0.3047
      3 O           5.7488   -3.9893   21.9351 O.2     1  UNL1       -0.2525
      4 N           6.7201   -1.5900   21.7119 N.am    1  UNL1       -0.2863
      5 H           8.7672   -2.7658   23.1768 H       1  UNL1        0.1564
      6 H           7.4363   -0.9396   21.8947 H       1  UNL1        0.1512
      7 C           5.5090   -1.1723   20.9316 C.3     1  UNL1        0.1020
      8 C           5.5221   -1.2402   19.4332 C.3     1  UNL1        0.0642
      9 C           4.3110   -0.8225   18.6529 C.3     1  UNL1        0.1353
     10 C           3.4173   -0.5394   17.4819 C.3     1  UNL1        0.0437
     11 C           5.2248   -1.2097   17.5281 C.3     1  UNL1        0.0437
     12 O           3.0869   -0.3370   19.3710 O.3     1  UNL1       -0.4804
     13 C           3.0738   -0.2692   20.8694 C.ar    1  UNL1        0.1652
     14 C           4.2848   -0.6868   21.6497 C.ar    1  UNL1        0.0320
     15 C           4.2717   -0.6189   23.1481 C.ar    1  UNL1        0.0028
     16 C           3.0476   -0.1334   23.8662 C.ar    1  UNL1        0.0319
     17 C           1.8366    0.2842   23.0859 C.ar    1  UNL1        0.1704
     18 F           0.6123    0.7697   23.8040 F       1  UNL1       -0.2017
     19 C           1.8496    0.2163   21.5875 C.ar    1  UNL1        0.2007
     20 F           0.6385    0.6340   20.8072 F       1  UNL1       -0.1986
     21 C           6.1610   -3.3693   28.0610 C.3     1  UNL1        0.0521
     22 C           6.7234   -4.4374   27.1706 C.ar    1  UNL1        0.0594
     23 C           7.1660   -4.0970   25.7784 C.ar    1  UNL1        0.0160
     24 C           7.7284   -5.1651   24.8880 C.ar    1  UNL1        0.0162
     25 C           8.1709   -4.8246   23.4957 C.ar    1  UNL1        0.0516
     26 C           8.7334   -5.8927   22.6052 C.ar    1  UNL1        0.0147
     27 C           8.8532   -7.3012   23.1071 C.ar    1  UNL1        0.0013
     28 C           8.4107   -7.6416   24.4992 C.ar    1  UNL1        0.0016
     29 C           7.8483   -6.5735   25.3897 C.ar    1  UNL1        0.0204
     30 C           7.4057   -6.9139   26.7819 C.ar    1  UNL1        0.0984
     31 N           6.8433   -5.8459   27.6723 N.ar    1  UNL1       -0.2481
@<TRIPOS>BOND
     1    21    22    1
     2    22    23   ar
     3    23    24   ar
     4    24    25   ar
     5    25     1    1
     6     1     2   am
     7     2     3    2
     8     2     4   am
     9     7     4    1
    10     7     8    1
    11     8     9    1
    12     9    10    1
    13     9    11    1
    14     9    12    1
    15    12    13    1
    16    13    14   ar
    17    14    15   ar
    18    15    16   ar
    19    16    17   ar
    20    17    18    1
    21    17    19   ar
    22    19    20    1
    23    25    26   ar
    24    26    27   ar
    25    27    28   ar
    26    28    29   ar
    27    29    30   ar
    28    30    31   ar
    29    31    22   ar
    30    29    24   ar
    31    14     7    1
    32    19    13   ar
    33     1     5    1
    34     4     6    1
