@<TRIPOS>MOLECULE
*****
 19 20 0 0 0
SMALL
GASTEIGER

@<TRIPOS>ATOM
      1 C          -9.9696  -17.8032   23.0098 C.3     1  UNL1        0.0359
      2 C         -10.4697  -16.3924   22.9138 C.3     1  UNL1        0.0069
      3 C         -11.7500  -16.0981   22.1898 C.3     1  UNL1        0.0175
      4 C         -12.5303  -17.2147   21.5617 C.3     1  UNL1        0.0686
      5 N         -12.0302  -18.6256   21.6577 N.3     1  UNL1       -0.2972
      6 C         -10.7499  -18.9199   22.3817 C.3     1  UNL1        0.0726
      7 H         -11.9120  -18.9618   20.7020 H       1  UNL1        0.1233
      8 C          -8.8849  -17.0906   23.7619 C.ar    1  UNL1       -0.0205
      9 C          -7.5659  -16.8214   23.1003 C.ar    1  UNL1       -0.0033
     10 C          -6.4812  -16.1089   23.8523 C.ar    1  UNL1        0.0119
     11 C          -6.7155  -15.6655   25.2660 C.ar    1  UNL1        0.0682
     12 CL         -5.6307  -14.9530   26.0181 Cl      1  UNL1       -0.0814
     13 C          -8.0345  -15.9348   25.9277 C.ar    1  UNL1        0.0679
     14 CL         -8.2688  -15.4914   27.3414 Cl      1  UNL1       -0.0814
     15 C          -9.1192  -16.6473   25.1756 C.ar    1  UNL1        0.0080
     16 C          -9.0928  -18.9667   23.3670 C.3     1  UNL1        0.0371
     17 O         -10.0696  -20.1309   25.4742 O.3     1  UNL1       -0.3820
     18 C          -9.6846  -20.1776   24.0251 C.3     1  UNL1        0.1375
     19 H         -10.4337  -20.9898   25.7399 H       1  UNL1        0.2104
@<TRIPOS>BOND
     1    17    18    1
     2    18    16    1
     3     1    16    1
     4     1     8    1
     5     8     9   ar
     6     9    10   ar
     7    10    11   ar
     8    11    12    1
     9    11    13   ar
    10    13    14    1
    11    13    15   ar
    12     1     2    1
    13     2     3    1
    14     3     4    1
    15     4     5    1
    16     5     6    1
    17     6     1    1
    18    15     8   ar
    19    17    19    1
    20     5     7    1
@<TRIPOS>MOLECULE
*****
 19 20 0 0 0
SMALL
GASTEIGER

@<TRIPOS>ATOM
      1 C          -7.8572  -17.8168   22.9406 C.3     1  UNL1        0.0359
      2 C          -8.1460  -19.0999   22.2194 C.3     1  UNL1        0.0069
      3 C          -7.0258  -19.8772   21.5940 C.3     1  UNL1        0.0175
      4 C          -5.6169  -19.3713   21.6900 C.3     1  UNL1        0.0686
      5 N          -5.3282  -18.0883   22.4112 N.3     1  UNL1       -0.2972
      6 C          -6.4483  -17.3109   23.0366 C.3     1  UNL1        0.0726
      7 H          -4.8784  -17.4672   21.7387 H       1  UNL1        0.1233
      8 C          -9.3454  -17.8852   23.1164 C.ar    1  UNL1       -0.0205
      9 C          -9.9273  -18.5306   24.3390 C.ar    1  UNL1       -0.0033
     10 C         -11.4154  -18.5990   24.5147 C.ar    1  UNL1        0.0119
     11 C         -12.3215  -18.0220   23.4678 C.ar    1  UNL1        0.0682
     12 CL        -13.8097  -18.0904   23.6436 Cl      1  UNL1       -0.0814
     13 C         -11.7396  -17.3766   22.2452 C.ar    1  UNL1        0.0679
     14 CL        -12.6458  -16.7996   21.1983 Cl      1  UNL1       -0.0814
     15 C         -10.2515  -17.3082   22.0695 C.ar    1  UNL1        0.0080
     16 C          -8.0853  -16.5574   23.7229 C.3     1  UNL1        0.0371
     17 O          -7.5710  -14.0445   24.1364 O.3     1  UNL1       -0.3820
     18 C          -7.4171  -15.2820   23.3027 C.3     1  UNL1        0.1375
     19 H          -7.0795  -13.3155   23.7268 H       1  UNL1        0.2104
@<TRIPOS>BOND
     1    17    18    1
     2    18    16    1
     3     1    16    1
     4     1     8    1
     5     8     9   ar
     6     9    10   ar
     7    10    11   ar
     8    11    12    1
     9    11    13   ar
    10    13    14    1
    11    13    15   ar
    12     1     2    1
    13     2     3    1
    14     3     4    1
    15     4     5    1
    16     5     6    1
    17     6     1    1
    18    15     8   ar
    19    17    19    1
    20     5     7    1
@<TRIPOS>MOLECULE
*****
 19 20 0 0 0
SMALL
GASTEIGER

@<TRIPOS>ATOM
      1 C         -11.1487  -18.0914   21.6037 C.3     1  UNL1        0.0359
      2 C         -10.6731  -18.7651   22.8566 C.3     1  UNL1        0.0069
      3 C         -11.5805  -18.8617   24.0471 C.3     1  UNL1        0.0175
      4 C         -12.9636  -18.2844   23.9846 C.3     1  UNL1        0.0686
      5 N         -13.4393  -17.6107   22.7317 N.3     1  UNL1       -0.2972
      6 C         -12.5318  -17.5142   21.5412 C.3     1  UNL1        0.0726
      7 H         -13.6911  -16.6561   22.9881 H       1  UNL1        0.1233
      8 C          -9.7638  -18.4817   21.1798 C.ar    1  UNL1       -0.0205
      9 C          -9.5543  -19.2238   19.8932 C.ar    1  UNL1       -0.0033
     10 C          -8.1694  -19.6141   19.4694 C.ar    1  UNL1        0.0119
     11 C          -6.9939  -19.2623   20.3323 C.ar    1  UNL1        0.0682
     12 CL         -5.6089  -19.6526   19.9084 Cl      1  UNL1       -0.0814
     13 C          -7.2034  -18.5202   21.6189 C.ar    1  UNL1        0.0679
     14 CL         -6.0279  -18.1685   22.4817 Cl      1  UNL1       -0.0814
     15 C          -8.5883  -18.1300   22.0427 C.ar    1  UNL1        0.0080
     16 C         -11.1434  -17.5532   20.2035 C.3     1  UNL1        0.0371
     17 O         -10.8214  -15.2387   19.0680 O.3     1  UNL1       -0.3820
     18 C         -11.6289  -16.1599   19.9338 C.3     1  UNL1        0.1375
     19 H         -11.2734  -14.3835   18.9962 H       1  UNL1        0.2104
@<TRIPOS>BOND
     1    17    18    1
     2    18    16    1
     3     1    16    1
     4     1     8    1
     5     8     9   ar
     6     9    10   ar
     7    10    11   ar
     8    11    12    1
     9    11    13   ar
    10    13    14    1
    11    13    15   ar
    12     1     2    1
    13     2     3    1
    14     3     4    1
    15     4     5    1
    16     5     6    1
    17     6     1    1
    18    15     8   ar
    19    17    19    1
    20     5     7    1
@<TRIPOS>MOLECULE
*****
 19 20 0 0 0
SMALL
GASTEIGER

@<TRIPOS>ATOM
      1 C          -7.8599  -16.2196   24.3734 C.3     1  UNL1        0.0359
      2 C          -8.4422  -16.1438   25.7536 C.3     1  UNL1        0.0069
      3 C          -7.6133  -15.6222   26.8897 C.3     1  UNL1        0.0175
      4 C          -6.2020  -15.1763   26.6456 C.3     1  UNL1        0.0686
      5 N          -5.6197  -15.2521   25.2653 N.3     1  UNL1       -0.2972
      6 C          -6.4486  -15.7737   24.1292 C.3     1  UNL1        0.0726
      7 H          -4.7947  -15.8488   25.3261 H       1  UNL1        0.1233
      8 C          -9.2348  -16.7565   24.1059 C.ar    1  UNL1       -0.0205
      9 C          -9.7245  -17.9662   24.8453 C.ar    1  UNL1       -0.0033
     10 C         -11.0993  -18.5031   24.5778 C.ar    1  UNL1        0.0119
     11 C         -11.9844  -17.8303   23.5708 C.ar    1  UNL1        0.0682
     12 CL        -13.3593  -18.3673   23.3033 Cl      1  UNL1       -0.0814
     13 C         -11.4947  -16.6206   22.8314 C.ar    1  UNL1        0.0679
     14 CL        -12.3798  -15.9478   21.8244 Cl      1  UNL1       -0.0814
     15 C         -10.1199  -16.0837   23.0989 C.ar    1  UNL1        0.0080
     16 C          -7.7551  -16.4818   22.9002 C.3     1  UNL1        0.0371
     17 O          -7.0688  -18.0543   20.9492 O.3     1  UNL1       -0.3820
     18 C          -7.0216  -17.6925   22.4042 C.3     1  UNL1        0.1375
     19 H          -6.5459  -18.8573   20.7986 H       1  UNL1        0.2104
@<TRIPOS>BOND
     1    17    18    1
     2    18    16    1
     3     1    16    1
     4     1     8    1
     5     8     9   ar
     6     9    10   ar
     7    10    11   ar
     8    11    12    1
     9    11    13   ar
    10    13    14    1
    11    13    15   ar
    12     1     2    1
    13     2     3    1
    14     3     4    1
    15     4     5    1
    16     5     6    1
    17     6     1    1
    18    15     8   ar
    19    17    19    1
    20     5     7    1
@<TRIPOS>MOLECULE
*****
 19 20 0 0 0
SMALL
GASTEIGER

@<TRIPOS>ATOM
      1 C          -7.5045  -15.9458   24.7733 C.3     1  UNL1        0.0359
      2 C          -8.5651  -16.5331   25.6566 C.3     1  UNL1        0.0069
      3 C          -8.4678  -16.3843   27.1460 C.3     1  UNL1        0.0175
      4 C          -7.3098  -15.6482   27.7522 C.3     1  UNL1        0.0686
      5 N          -6.2492  -15.0610   26.8689 N.3     1  UNL1       -0.2972
      6 C          -6.3466  -15.2097   25.3795 C.3     1  UNL1        0.0726
      7 H          -5.3646  -15.4839   27.1499 H       1  UNL1        0.1233
      8 C          -8.4025  -16.5509   23.7352 C.ar    1  UNL1       -0.0205
      9 C          -7.8519  -17.5417   22.7528 C.ar    1  UNL1       -0.0033
     10 C          -8.7498  -18.1467   21.7147 C.ar    1  UNL1        0.0119
     11 C         -10.1983  -17.7610   21.6591 C.ar    1  UNL1        0.0682
     12 CL        -11.0962  -18.3661   20.6209 Cl      1  UNL1       -0.0814
     13 C         -10.7489  -16.7702   22.6415 C.ar    1  UNL1        0.0679
     14 CL        -12.1973  -16.3844   22.5858 Cl      1  UNL1       -0.0814
     15 C          -9.8509  -16.1651   23.6795 C.ar    1  UNL1        0.0080
     16 C          -6.7558  -15.5687   23.5295 C.3     1  UNL1        0.0371
     17 O          -4.6741  -14.3112   22.6155 O.3     1  UNL1       -0.3820
     18 C          -5.2898  -15.2595   23.6013 C.3     1  UNL1        0.1375
     19 H          -3.7260  -14.2229   22.8005 H       1  UNL1        0.2104
@<TRIPOS>BOND
     1    17    18    1
     2    18    16    1
     3     1    16    1
     4     1     8    1
     5     8     9   ar
     6     9    10   ar
     7    10    11   ar
     8    11    12    1
     9    11    13   ar
    10    13    14    1
    11    13    15   ar
    12     1     2    1
    13     2     3    1
    14     3     4    1
    15     4     5    1
    16     5     6    1
    17     6     1    1
    18    15     8   ar
    19    17    19    1
    20     5     7    1
@<TRIPOS>MOLECULE
*****
 19 20 0 0 0
SMALL
GASTEIGER

@<TRIPOS>ATOM
      1 C          -9.7842  -17.5354   22.9332 C.3     1  UNL1        0.0359
      2 C          -9.1946  -18.7393   23.6061 C.3     1  UNL1        0.0069
      3 C          -9.7637  -20.1013   23.3399 C.3     1  UNL1        0.0175
      4 C         -10.9226  -20.2594   22.4007 C.3     1  UNL1        0.0686
      5 N         -11.5123  -19.0555   21.7278 N.3     1  UNL1       -0.2972
      6 C         -10.9431  -17.6935   21.9940 C.3     1  UNL1        0.0726
      7 H         -12.4960  -19.0210   21.9952 H       1  UNL1        0.1233
      8 C          -8.6993  -16.8801   23.7355 C.ar    1  UNL1       -0.0205
      9 C          -7.3360  -16.6905   23.1393 C.ar    1  UNL1       -0.0033
     10 C          -6.2512  -16.0353   23.9415 C.ar    1  UNL1        0.0119
     11 C          -6.5296  -15.5695   25.3400 C.ar    1  UNL1        0.0682
     12 CL         -5.4446  -14.9142   26.1422 Cl      1  UNL1       -0.0814
     13 C          -7.8929  -15.7591   25.9361 C.ar    1  UNL1        0.0679
     14 CL         -8.1713  -15.2933   27.3346 Cl      1  UNL1       -0.0814
     15 C          -8.9777  -16.4143   25.1339 C.ar    1  UNL1        0.0080
     16 C          -9.9972  -16.1039   22.5389 C.3     1  UNL1        0.0371
     17 O          -9.5962  -14.6433   20.4280 O.3     1  UNL1       -0.3820
     18 C         -10.3256  -15.7586   21.1167 C.3     1  UNL1        0.1375
     19 H          -9.9270  -14.5524   19.5207 H       1  UNL1        0.2104
@<TRIPOS>BOND
     1    17    18    1
     2    18    16    1
     3     1    16    1
     4     1     8    1
     5     8     9   ar
     6     9    10   ar
     7    10    11   ar
     8    11    12    1
     9    11    13   ar
    10    13    14    1
    11    13    15   ar
    12     1     2    1
    13     2     3    1
    14     3     4    1
    15     4     5    1
    16     5     6    1
    17     6     1    1
    18    15     8   ar
    19    17    19    1
    20     5     7    1
@<TRIPOS>MOLECULE
*****
 19 20 0 0 0
SMALL
GASTEIGER

@<TRIPOS>ATOM
      1 C          -8.8591  -17.2608   23.5178 C.3     1  UNL1        0.0359
      2 C          -7.7979  -16.5371   22.7432 C.3     1  UNL1        0.0069
      3 C          -7.0881  -15.3668   23.3568 C.3     1  UNL1        0.0175
      4 C          -7.4395  -14.9202   24.7451 C.3     1  UNL1        0.0686
      5 N          -8.5007  -15.6440   25.5196 N.3     1  UNL1       -0.2972
      6 C          -9.2105  -16.8143   24.9060 C.3     1  UNL1        0.0726
      7 H          -9.2159  -14.9553   25.7534 H       1  UNL1        0.1233
      8 C          -8.8786  -18.0545   22.2450 C.ar    1  UNL1       -0.0205
      9 C         -10.1025  -18.0512   21.3779 C.ar    1  UNL1       -0.0033
     10 C         -10.1220  -18.8449   20.1052 C.ar    1  UNL1        0.0119
     11 C          -8.9176  -19.6417   19.6997 C.ar    1  UNL1        0.0682
     12 CL         -8.9371  -20.4354   18.4269 Cl      1  UNL1       -0.0814
     13 C          -7.6937  -19.6450   20.5669 C.ar    1  UNL1        0.0679
     14 CL         -6.4893  -20.4418   20.1614 Cl      1  UNL1       -0.0814
     15 C          -7.6742  -18.8513   21.8395 C.ar    1  UNL1        0.0080
     16 C          -9.9271  -18.2602   23.8503 C.3     1  UNL1        0.0371
     17 O         -10.1484  -20.3112   25.4298 O.3     1  UNL1       -0.3820
     18 C         -10.0164  -18.8297   25.2351 C.3     1  UNL1        0.1375
     19 H         -10.1932  -20.5099   26.3782 H       1  UNL1        0.2104
@<TRIPOS>BOND
     1    17    18    1
     2    18    16    1
     3     1    16    1
     4     1     8    1
     5     8     9   ar
     6     9    10   ar
     7    10    11   ar
     8    11    12    1
     9    11    13   ar
    10    13    14    1
    11    13    15   ar
    12     1     2    1
    13     2     3    1
    14     3     4    1
    15     4     5    1
    16     5     6    1
    17     6     1    1
    18    15     8   ar
    19    17    19    1
    20     5     7    1
@<TRIPOS>MOLECULE
*****
 19 20 0 0 0
SMALL
GASTEIGER

@<TRIPOS>ATOM
      1 C          -8.4396  -16.8866   24.0087 C.3     1  UNL1        0.0359
      2 C          -7.2096  -16.5109   23.2369 C.3     1  UNL1        0.0069
      3 C          -6.2037  -15.5746   23.8381 C.3     1  UNL1        0.0175
      4 C          -6.4278  -15.0140   25.2113 C.3     1  UNL1        0.0686
      5 N          -7.6578  -15.3897   25.9831 N.3     1  UNL1       -0.2972
      6 C          -8.6638  -16.3260   25.3819 C.3     1  UNL1        0.0726
      7 H          -8.1512  -14.5216   26.1915 H       1  UNL1        0.1233
      8 C          -8.6706  -17.6724   22.7521 C.ar    1  UNL1       -0.0205
      9 C          -7.6797  -18.7152   22.3268 C.ar    1  UNL1       -0.0033
     10 C          -7.9107  -19.5010   21.0702 C.ar    1  UNL1        0.0119
     11 C          -9.1325  -19.2441   20.2389 C.ar    1  UNL1        0.0682
     12 CL         -9.3635  -20.0300   18.9822 Cl      1  UNL1       -0.0814
     13 C         -10.1234  -18.2013   20.6641 C.ar    1  UNL1        0.0679
     14 CL        -11.3452  -17.9444   19.8328 Cl      1  UNL1       -0.0814
     15 C          -9.8924  -17.4155   21.9207 C.ar    1  UNL1        0.0080
     16 C          -9.7499  -17.5352   24.3442 C.3     1  UNL1        0.0371
     17 O         -10.1928  -19.8735   25.3864 O.3     1  UNL1       -0.3820
     18 C          -9.8618  -18.4197   25.5505 C.3     1  UNL1        0.1375
     19 H         -10.2264  -20.2979   26.2580 H       1  UNL1        0.2104
@<TRIPOS>BOND
     1    17    18    1
     2    18    16    1
     3     1    16    1
     4     1     8    1
     5     8     9   ar
     6     9    10   ar
     7    10    11   ar
     8    11    12    1
     9    11    13   ar
    10    13    14    1
    11    13    15   ar
    12     1     2    1
    13     2     3    1
    14     3     4    1
    15     4     5    1
    16     5     6    1
    17     6     1    1
    18    15     8   ar
    19    17    19    1
    20     5     7    1
@<TRIPOS>MOLECULE
*****
 19 20 0 0 0
SMALL
GASTEIGER

@<TRIPOS>ATOM
      1 C          -7.0773  -16.8890   23.2059 C.3     1  UNL1        0.0359
      2 C          -7.1561  -18.1822   22.4502 C.3     1  UNL1        0.0069
      3 C          -5.9003  -18.9246   22.1010 C.3     1  UNL1        0.0175
      4 C          -4.5657  -18.3736   22.5076 C.3     1  UNL1        0.0686
      5 N          -4.4869  -17.0803   23.2634 N.3     1  UNL1       -0.2972
      6 C          -5.7427  -16.3380   23.6125 C.3     1  UNL1        0.0726
      7 H          -3.9162  -16.4466   22.7038 H       1  UNL1        0.1233
      8 C          -8.5639  -17.0047   23.0420 C.ar    1  UNL1       -0.0205
      9 C          -9.2640  -16.2189   21.9733 C.ar    1  UNL1       -0.0033
     10 C         -10.7505  -16.3347   21.8094 C.ar    1  UNL1        0.0119
     11 C         -11.5368  -17.2363   22.7143 C.ar    1  UNL1        0.0682
     12 CL        -13.0234  -17.3521   22.5504 Cl      1  UNL1       -0.0814
     13 C         -10.8367  -18.0221   23.7831 C.ar    1  UNL1        0.0679
     14 CL        -11.6230  -18.9237   24.6879 Cl      1  UNL1       -0.0814
     15 C          -9.3502  -17.9063   23.9469 C.ar    1  UNL1        0.0080
     16 C          -7.5148  -15.6358   23.9047 C.3     1  UNL1        0.0371
     17 O          -7.8675  -15.0308   26.4066 O.3     1  UNL1       -0.3820
     18 C          -6.9483  -15.2905   25.2500 C.3     1  UNL1        0.1375
     19 H          -7.3432  -14.8231   27.1959 H       1  UNL1        0.2104
@<TRIPOS>BOND
     1    17    18    1
     2    18    16    1
     3     1    16    1
     4     1     8    1
     5     8     9   ar
     6     9    10   ar
     7    10    11   ar
     8    11    12    1
     9    11    13   ar
    10    13    14    1
    11    13    15   ar
    12     1     2    1
    13     2     3    1
    14     3     4    1
    15     4     5    1
    16     5     6    1
    17     6     1    1
    18    15     8   ar
    19    17    19    1
    20     5     7    1
