@<TRIPOS>MOLECULE
*****
 30 33 0 0 0
SMALL
GASTEIGER

@<TRIPOS>ATOM
      1 N          -5.4527  -14.9632   25.0510 N.3     1  UNL1       -0.3162
      2 C          -6.2229  -15.9066   24.1754 C.3     1  UNL1        0.1166
      3 C          -6.5097  -16.9429   23.1295 C.3     1  UNL1        0.0739
      4 C          -7.9210  -17.3843   22.8781 C.3     1  UNL1        0.2039
      5 N          -9.0457  -16.7894   23.6727 N.pl3   1  UNL1       -0.1931
      6 C          -8.7590  -15.7531   24.7186 C.3     1  UNL1        0.2039
      7 C          -7.3475  -15.3118   24.9699 C.3     1  UNL1        0.0739
      8 H          -4.4589  -15.0300   24.8312 H       1  UNL1        0.1192
      9 H          -5.6018  -15.2092   26.0296 H       1  UNL1        0.1192
     10 C         -10.4571  -17.2308   23.4213 C.2     1  UNL1        0.3205
     11 N         -11.1730  -18.0694   24.4382 N.2     1  UNL1        0.0097
     12 C         -12.5843  -18.5108   24.1868 C.2     1  UNL1        0.4717
     13 N         -13.2798  -18.1136   22.9185 N.2     1  UNL1        0.0158
     14 C         -12.5639  -17.2750   21.9016 C.2     1  UNL1        0.3714
     15 N         -12.9888  -16.7328   20.5691 N.2     1  UNL1       -0.0339
     16 C         -11.8400  -15.9563   19.9970 C.2     1  UNL1        0.2323
     17 C         -10.7051  -16.0186   20.9758 C.2     1  UNL1        0.0486
     18 C         -11.1525  -16.8336   22.1530 C.3     1  UNL1        0.2428
     19 C          -4.8308  -16.1739   23.6849 C.2     1  UNL1        0.2353
     20 O          -4.0539  -15.0867   23.0035 O.2     1  UNL1       -0.2737
     21 N          -4.2156  -17.5286   23.8759 N.am    1  UNL1       -0.2994
     22 H          -4.7255  -18.2422   24.3231 H       1  UNL1        0.1498
     23 C          -2.8235  -17.7960   23.3854 C.3     1  UNL1        0.1164
     24 C          -2.5351  -17.8018   21.9134 C.ar    1  UNL1       -0.0025
     25 C          -3.2681  -18.7481   21.0093 C.ar    1  UNL1       -0.0018
     26 C          -2.9797  -18.7539   19.5373 C.ar    1  UNL1        0.0111
     27 C          -1.9584  -17.8135   18.9693 C.ar    1  UNL1        0.0577
     28 CL         -1.6700  -17.8194   17.4974 Cl      1  UNL1       -0.0822
     29 C          -1.2254  -16.8673   19.8734 C.ar    1  UNL1        0.0111
     30 C          -1.5138  -16.8614   21.3454 C.ar    1  UNL1       -0.0018
@<TRIPOS>BOND
     1     1     2    1
     2     2    19    1
     3    19    20    2
     4    19    21   am
     5    21    23    1
     6    23    24    1
     7    24    25   ar
     8    25    26   ar
     9    26    27   ar
    10    27    28    1
    11    27    29   ar
    12    29    30   ar
    13     2     3    1
    14     3     4    1
    15     4     5    1
    16     5    10    1
    17    10    11    2
    18    11    12    1
    19    12    13    2
    20    13    14    1
    21    14    15    2
    22    15    16    1
    23    16    17    2
    24    17    18    1
    25     5     6    1
    26     6     7    1
    27     7     2    1
    28    30    24   ar
    29    18    10    1
    30    18    14    1
    31     1     8    1
    32     1     9    1
    33    21    22    1
@<TRIPOS>MOLECULE
*****
 30 33 0 0 0
SMALL
GASTEIGER

@<TRIPOS>ATOM
      1 N          -5.7939  -15.2804   25.2307 N.3     1  UNL1       -0.3162
      2 C          -6.4705  -15.9009   24.0445 C.3     1  UNL1        0.1166
      3 C          -6.6491  -16.6149   22.7374 C.3     1  UNL1        0.0739
      4 C          -8.0267  -16.8444   22.1903 C.3     1  UNL1        0.2039
      5 N          -9.2259  -16.3599   22.9502 N.pl3   1  UNL1       -0.1931
      6 C          -9.0473  -15.6459   24.2572 C.3     1  UNL1        0.2039
      7 C          -7.6696  -15.4164   24.8044 C.3     1  UNL1        0.0739
      8 H          -4.7835  -15.3850   25.1390 H       1  UNL1        0.1192
      9 H          -6.1079  -15.7449   26.0827 H       1  UNL1        0.1192
     10 C         -10.6035  -16.5893   22.4030 C.2     1  UNL1        0.3205
     11 N         -10.9933  -15.9983   21.0806 N.2     1  UNL1        0.0097
     12 C         -12.3709  -16.2277   20.5335 C.2     1  UNL1        0.4717
     13 N         -13.3588  -17.0483   21.3086 N.2     1  UNL1        0.0158
     14 C         -12.9690  -17.6394   22.6310 C.2     1  UNL1        0.3714
     15 N         -13.7231  -18.4854   23.6136 N.2     1  UNL1       -0.0339
     16 C         -12.8115  -18.7787   24.7681 C.2     1  UNL1        0.2323
     17 C         -11.4940  -18.1141   24.4990 C.2     1  UNL1        0.0486
     18 C         -11.5913  -17.4099   23.1782 C.3     1  UNL1        0.2428
     19 C          -5.0364  -16.1700   23.6966 C.2     1  UNL1        0.2353
     20 O          -4.1766  -15.0670   23.1543 O.2     1  UNL1       -0.2737
     21 N          -4.4623  -17.5420   23.8910 N.am    1  UNL1       -0.2994
     22 H          -5.0267  -18.2659   24.2469 H       1  UNL1        0.1498
     23 C          -3.0282  -17.8112   23.5430 C.3     1  UNL1        0.1164
     24 C          -2.5957  -17.8295   22.1068 C.ar    1  UNL1       -0.0025
     25 C          -1.6568  -16.7787   21.5928 C.ar    1  UNL1       -0.0018
     26 C          -1.2243  -16.7972   20.1566 C.ar    1  UNL1        0.0111
     27 C          -1.7306  -17.8663   19.2345 C.ar    1  UNL1        0.0577
     28 CL         -1.2982  -17.8848   17.7984 Cl      1  UNL1       -0.0822
     29 C          -2.6695  -18.9172   19.7485 C.ar    1  UNL1        0.0111
     30 C          -3.1020  -18.8988   21.1847 C.ar    1  UNL1       -0.0018
@<TRIPOS>BOND
     1     1     2    1
     2     2    19    1
     3    19    20    2
     4    19    21   am
     5    21    23    1
     6    23    24    1
     7    24    25   ar
     8    25    26   ar
     9    26    27   ar
    10    27    28    1
    11    27    29   ar
    12    29    30   ar
    13     2     3    1
    14     3     4    1
    15     4     5    1
    16     5    10    1
    17    10    11    2
    18    11    12    1
    19    12    13    2
    20    13    14    1
    21    14    15    2
    22    15    16    1
    23    16    17    2
    24    17    18    1
    25     5     6    1
    26     6     7    1
    27     7     2    1
    28    30    24   ar
    29    18    10    1
    30    18    14    1
    31     1     8    1
    32     1     9    1
    33    21    22    1
@<TRIPOS>MOLECULE
*****
 30 33 0 0 0
SMALL
GASTEIGER

@<TRIPOS>ATOM
      1 N         -10.5816   -6.6867   18.8517 N.3     1  UNL1       -0.3162
      2 C         -11.6614   -5.7568   18.3835 C.3     1  UNL1        0.1166
      3 C         -12.9701   -5.2854   17.8221 C.3     1  UNL1        0.0739
      4 C         -13.2448   -3.8167   17.6916 C.3     1  UNL1        0.2039
      5 N         -12.2107   -2.8191   18.1227 N.pl3   1  UNL1       -0.1931
      6 C         -10.9020   -3.2904   18.6841 C.3     1  UNL1        0.2039
      7 C         -10.6274   -4.7593   18.8145 C.3     1  UNL1        0.0739
      8 H         -10.8880   -7.6520   18.7302 H       1  UNL1        0.1192
      9 H         -10.3876   -6.5132   19.8379 H       1  UNL1        0.1192
     10 C         -12.4854   -1.3502   17.9922 C.2     1  UNL1        0.3205
     11 N         -11.5206   -0.4693   17.2553 N.2     1  UNL1        0.0097
     12 C         -11.7952    0.9994   17.1248 C.2     1  UNL1        0.4717
     13 N         -13.0348    1.5875   17.7313 N.2     1  UNL1        0.0158
     14 C         -13.9996    0.7066   18.4683 C.2     1  UNL1        0.3714
     15 N         -15.2948    0.9997   19.1657 N.2     1  UNL1       -0.0339
     16 C         -15.8207   -0.2880   19.7272 C.2     1  UNL1        0.2323
     17 C         -14.8504   -1.3770   19.3768 C.2     1  UNL1        0.0486
     18 C         -13.7249   -0.7622   18.5988 C.3     1  UNL1        0.2428
     19 C         -12.3205   -7.0773   18.1151 C.2     1  UNL1        0.2353
     20 O         -11.7119   -8.0333   17.1324 O.2     1  UNL1       -0.2737
     21 N         -13.5881   -7.4416   18.8294 N.am    1  UNL1       -0.2994
     22 H         -13.9875   -6.8142   19.4744 H       1  UNL1        0.1498
     23 C         -14.2473   -8.7621   18.5611 C.3     1  UNL1        0.1164
     24 C         -15.7117   -8.9385   18.8339 C.ar    1  UNL1       -0.0025
     25 C         -16.4337   -7.9615   19.7137 C.ar    1  UNL1       -0.0018
     26 C         -17.8981   -8.1380   19.9865 C.ar    1  UNL1        0.0111
     27 C         -18.6405   -9.2914   19.3795 C.ar    1  UNL1        0.0577
     28 CL        -20.1048   -9.4679   19.6522 Cl      1  UNL1       -0.0822
     29 C         -17.9184  -10.2684   18.4997 C.ar    1  UNL1        0.0111
     30 C         -16.4540  -10.0920   18.2268 C.ar    1  UNL1       -0.0018
@<TRIPOS>BOND
     1     1     2    1
     2     2    19    1
     3    19    20    2
     4    19    21   am
     5    21    23    1
     6    23    24    1
     7    24    25   ar
     8    25    26   ar
     9    26    27   ar
    10    27    28    1
    11    27    29   ar
    12    29    30   ar
    13     2     3    1
    14     3     4    1
    15     4     5    1
    16     5    10    1
    17    10    11    2
    18    11    12    1
    19    12    13    2
    20    13    14    1
    21    14    15    2
    22    15    16    1
    23    16    17    2
    24    17    18    1
    25     5     6    1
    26     6     7    1
    27     7     2    1
    28    30    24   ar
    29    18    10    1
    30    18    14    1
    31     1     8    1
    32     1     9    1
    33    21    22    1
@<TRIPOS>MOLECULE
*****
 30 33 0 0 0
SMALL
GASTEIGER

@<TRIPOS>ATOM
      1 N          -0.1275    1.7506   21.6133 N.3     1  UNL1       -0.3162
      2 C           0.6029    1.5183   20.3240 C.3     1  UNL1        0.1166
      3 C           0.9584    1.6077   18.8694 C.3     1  UNL1        0.0739
      4 C           2.1397    0.8513   18.3382 C.3     1  UNL1        0.2039
      5 N           2.9655    0.0053   19.2615 N.pl3   1  UNL1       -0.1931
      6 C           2.6100   -0.0841   20.7160 C.3     1  UNL1        0.2039
      7 C           1.4287    0.6724   21.2472 C.3     1  UNL1        0.0739
      8 H          -0.9132    2.3803   21.4503 H       1  UNL1        0.1192
      9 H           0.5076    2.1685   22.2933 H       1  UNL1        0.1192
     10 C           4.1469   -0.7511   18.7303 C.2     1  UNL1        0.3205
     11 N           5.2949   -0.0106   18.1109 N.2     1  UNL1        0.0097
     12 C           6.4762   -0.7670   17.5797 C.2     1  UNL1        0.4717
     13 N           6.5095   -2.2641   17.6677 N.2     1  UNL1        0.0158
     14 C           5.3615   -3.0047   18.2870 C.2     1  UNL1        0.3714
     15 N           5.1145   -4.4671   18.5112 N.2     1  UNL1       -0.0339
     16 C           3.7805   -4.6144   19.1811 C.2     1  UNL1        0.2323
     17 C           3.2030   -3.2431   19.3709 C.2     1  UNL1        0.0486
     18 C           4.1802   -2.2482   18.8183 C.3     1  UNL1        0.2428
     19 C          -0.4766    2.4449   19.8484 C.2     1  UNL1        0.2353
     20 O          -0.2585    3.2855   18.6254 O.2     1  UNL1       -0.2737
     21 N          -1.7742    2.5309   20.5960 N.am    1  UNL1       -0.2994
     22 H          -1.9173    1.9792   21.3988 H       1  UNL1        0.1498
     23 C          -2.8537    3.4576   20.1205 C.3     1  UNL1        0.1164
     24 C          -4.0793    3.6735   20.9580 C.ar    1  UNL1       -0.0025
     25 C          -5.3439    4.1703   20.3225 C.ar    1  UNL1       -0.0018
     26 C          -6.5695    4.3863   21.1601 C.ar    1  UNL1        0.0111
     27 C          -6.5304    4.1055   22.6330 C.ar    1  UNL1        0.0577
     28 CL         -7.7559    4.3214   23.4705 Cl      1  UNL1       -0.0822
     29 C          -5.2658    3.6087   23.2685 C.ar    1  UNL1        0.0111
     30 C          -4.0402    3.3927   22.4310 C.ar    1  UNL1       -0.0018
@<TRIPOS>BOND
     1     1     2    1
     2     2    19    1
     3    19    20    2
     4    19    21   am
     5    21    23    1
     6    23    24    1
     7    24    25   ar
     8    25    26   ar
     9    26    27   ar
    10    27    28    1
    11    27    29   ar
    12    29    30   ar
    13     2     3    1
    14     3     4    1
    15     4     5    1
    16     5    10    1
    17    10    11    2
    18    11    12    1
    19    12    13    2
    20    13    14    1
    21    14    15    2
    22    15    16    1
    23    16    17    2
    24    17    18    1
    25     5     6    1
    26     6     7    1
    27     7     2    1
    28    30    24   ar
    29    18    10    1
    30    18    14    1
    31     1     8    1
    32     1     9    1
    33    21    22    1
@<TRIPOS>MOLECULE
*****
 30 33 0 0 0
SMALL
GASTEIGER

@<TRIPOS>ATOM
      1 N           1.9311    3.2317   18.2900 N.3     1  UNL1       -0.3162
      2 C           1.5455    1.8974   18.8563 C.3     1  UNL1        0.1166
      3 C           0.6950    0.7977   19.4198 C.3     1  UNL1        0.0739
      4 C           1.3172   -0.5145   19.7949 C.3     1  UNL1        0.2039
      5 N           2.7902   -0.7272   19.6066 N.pl3   1  UNL1       -0.1931
      6 C           3.6407    0.3724   19.0432 C.3     1  UNL1        0.2039
      7 C           3.0184    1.6847   18.6681 C.3     1  UNL1        0.0739
      8 H           1.1032    3.8235   18.2202 H       1  UNL1        0.1192
      9 H           2.3364    3.1033   17.3629 H       1  UNL1        0.1192
     10 C           3.4124   -2.0394   19.9818 C.2     1  UNL1        0.3205
     11 N           3.5364   -3.1302   18.9596 N.2     1  UNL1        0.0097
     12 C           4.1586   -4.4424   19.3347 C.2     1  UNL1        0.4717
     13 N           4.6569   -4.6640   20.7321 N.2     1  UNL1        0.0158
     14 C           4.5330   -3.5733   21.7543 C.2     1  UNL1        0.3714
     15 N           4.9308   -3.5016   23.1988 N.2     1  UNL1       -0.0339
     16 C           4.5544   -2.1449   23.7164 C.2     1  UNL1        0.2323
     17 C           3.9239   -1.3782   22.5918 C.2     1  UNL1        0.0486
     18 C           3.9107   -2.2610   21.3791 C.3     1  UNL1        0.2428
     19 C           0.2065    2.5734   18.8479 C.2     1  UNL1        0.2353
     20 O          -0.3204    3.1781   17.5804 O.2     1  UNL1       -0.2737
     21 N          -0.6054    2.6447   20.1071 N.am    1  UNL1       -0.2994
     22 H          -0.2595    2.2478   20.9390 H       1  UNL1        0.1498
     23 C          -1.9445    3.3207   20.0988 C.3     1  UNL1        0.1164
     24 C          -2.7589    3.3871   21.3567 C.ar    1  UNL1       -0.0025
     25 C          -2.0850    3.6298   22.6746 C.ar    1  UNL1       -0.0018
     26 C          -2.8995    3.6962   23.9325 C.ar    1  UNL1        0.0111
     27 C          -4.3878    3.5199   23.8725 C.ar    1  UNL1        0.0577
     28 CL         -5.2023    3.5863   25.1303 Cl      1  UNL1       -0.0822
     29 C          -5.0618    3.2773   22.5546 C.ar    1  UNL1        0.0111
     30 C          -4.2473    3.2108   21.2967 C.ar    1  UNL1       -0.0018
@<TRIPOS>BOND
     1     1     2    1
     2     2    19    1
     3    19    20    2
     4    19    21   am
     5    21    23    1
     6    23    24    1
     7    24    25   ar
     8    25    26   ar
     9    26    27   ar
    10    27    28    1
    11    27    29   ar
    12    29    30   ar
    13     2     3    1
    14     3     4    1
    15     4     5    1
    16     5    10    1
    17    10    11    2
    18    11    12    1
    19    12    13    2
    20    13    14    1
    21    14    15    2
    22    15    16    1
    23    16    17    2
    24    17    18    1
    25     5     6    1
    26     6     7    1
    27     7     2    1
    28    30    24   ar
    29    18    10    1
    30    18    14    1
    31     1     8    1
    32     1     9    1
    33    21    22    1
@<TRIPOS>MOLECULE
*****
 30 33 0 0 0
SMALL
GASTEIGER

@<TRIPOS>ATOM
      1 N           0.1185    2.0554   22.0830 N.3     1  UNL1       -0.3162
      2 C           0.5644    1.4150   20.8020 C.3     1  UNL1        0.1166
      3 C           0.6553    1.1081   19.3365 C.3     1  UNL1        0.0739
      4 C           1.6137    0.0632   18.8471 C.3     1  UNL1        0.2039
      5 N           2.4812   -0.6750   19.8232 N.pl3   1  UNL1       -0.1931
      6 C           2.3904   -0.3681   21.2886 C.3     1  UNL1        0.2039
      7 C           1.4319    0.6769   21.7780 C.3     1  UNL1        0.0739
      8 H          -0.5977    2.7535   21.8828 H       1  UNL1        0.1192
      9 H           0.9153    2.5054   22.5335 H       1  UNL1        0.1192
     10 C           3.4396   -1.7199   19.3337 C.2     1  UNL1        0.3205
     11 N           3.1542   -3.1723   19.5771 N.2     1  UNL1        0.0097
     12 C           4.1125   -4.2172   19.0877 C.2     1  UNL1        0.4717
     13 N           5.3564   -3.8098   18.3547 N.2     1  UNL1        0.0158
     14 C           5.6417   -2.3575   18.1113 C.2     1  UNL1        0.3714
     15 N           6.7775   -1.6593   17.4240 N.2     1  UNL1       -0.0339
     16 C           6.5211   -0.1828   17.4886 C.2     1  UNL1        0.2323
     17 C           5.2268    0.0315   18.2159 C.2     1  UNL1        0.0486
     18 C           4.6833   -1.3125   18.6008 C.3     1  UNL1        0.2428
     19 C          -0.4579    2.3755   20.2708 C.2     1  UNL1        0.2353
     20 O          -0.1563    3.1925   19.0496 O.2     1  UNL1       -0.2737
     21 N          -1.7820    2.5189   20.9610 N.am    1  UNL1       -0.2994
     22 H          -1.9800    1.9827   21.7625 H       1  UNL1        0.1498
     23 C          -2.8044    3.4795   20.4298 C.3     1  UNL1        0.1164
     24 C          -4.0811    3.7084   21.1833 C.ar    1  UNL1       -0.0025
     25 C          -5.2854    4.2497   20.4716 C.ar    1  UNL1       -0.0018
     26 C          -6.5620    4.4786   21.2251 C.ar    1  UNL1        0.0111
     27 C          -6.6344    4.1662   22.6904 C.ar    1  UNL1        0.0577
     28 CL         -7.9109    4.3951   23.4439 Cl      1  UNL1       -0.0822
     29 C          -5.4301    3.6249   23.4022 C.ar    1  UNL1        0.0111
     30 C          -4.1535    3.3959   22.6487 C.ar    1  UNL1       -0.0018
@<TRIPOS>BOND
     1     1     2    1
     2     2    19    1
     3    19    20    2
     4    19    21   am
     5    21    23    1
     6    23    24    1
     7    24    25   ar
     8    25    26   ar
     9    26    27   ar
    10    27    28    1
    11    27    29   ar
    12    29    30   ar
    13     2     3    1
    14     3     4    1
    15     4     5    1
    16     5    10    1
    17    10    11    2
    18    11    12    1
    19    12    13    2
    20    13    14    1
    21    14    15    2
    22    15    16    1
    23    16    17    2
    24    17    18    1
    25     5     6    1
    26     6     7    1
    27     7     2    1
    28    30    24   ar
    29    18    10    1
    30    18    14    1
    31     1     8    1
    32     1     9    1
    33    21    22    1
@<TRIPOS>MOLECULE
*****
 30 33 0 0 0
SMALL
GASTEIGER

@<TRIPOS>ATOM
      1 N          -0.4073    2.9711   19.0372 N.3     1  UNL1       -0.3162
      2 C           0.2662    1.8557   19.7802 C.3     1  UNL1        0.1166
      3 C           0.6397    0.9334   20.9027 C.3     1  UNL1        0.0739
      4 C           1.6433   -0.1577   20.6746 C.3     1  UNL1        0.2039
      5 N           2.2736   -0.3266   19.3239 N.pl3   1  UNL1       -0.1931
      6 C           1.9002    0.5957   18.2014 C.3     1  UNL1        0.2039
      7 C           0.8965    1.6868   18.4296 C.3     1  UNL1        0.0739
      8 H          -1.0464    3.4599   19.6640 H       1  UNL1        0.1192
      9 H          -0.9302    2.5879   18.2497 H       1  UNL1        0.1192
     10 C           3.2773   -1.4177   19.0958 C.2     1  UNL1        0.3205
     11 N           2.9774   -2.8179   19.5422 N.2     1  UNL1        0.0097
     12 C           3.9810   -3.9090   19.3142 C.2     1  UNL1        0.4717
     13 N           5.2847   -3.6000   18.6395 N.2     1  UNL1        0.0158
     14 C           5.5846   -2.1997   18.1931 C.2     1  UNL1        0.3714
     15 N           6.7753   -1.5983   17.5070 N.2     1  UNL1       -0.0339
     16 C           6.5074   -0.1355   17.3111 C.2     1  UNL1        0.2323
     17 C           5.1512    0.1672   17.8761 C.2     1  UNL1        0.0486
     18 C           4.5809   -1.1086   18.4212 C.3     1  UNL1        0.2428
     19 C          -0.5979    2.4119   20.8729 C.2     1  UNL1        0.2353
     20 O          -2.0752    2.5600   20.6588 O.2     1  UNL1       -0.2737
     21 N           0.0153    2.8200   22.1796 N.am    1  UNL1       -0.2994
     22 H           0.9848    2.7228   22.3200 H       1  UNL1        0.1498
     23 C          -0.8488    3.3762   23.2723 C.3     1  UNL1        0.1164
     24 C          -0.8038    2.7726   24.6447 C.ar    1  UNL1       -0.0025
     25 C           0.1796    1.6826   24.9528 C.ar    1  UNL1       -0.0018
     26 C           0.2246    1.0790   26.3252 C.ar    1  UNL1        0.0111
     27 C          -0.7137    1.5653   27.3896 C.ar    1  UNL1        0.0577
     28 CL         -0.6687    0.9617   28.7620 Cl      1  UNL1       -0.0822
     29 C          -1.6971    2.6552   27.0816 C.ar    1  UNL1        0.0111
     30 C          -1.7422    3.2589   25.7091 C.ar    1  UNL1       -0.0018
@<TRIPOS>BOND
     1     1     2    1
     2     2    19    1
     3    19    20    2
     4    19    21   am
     5    21    23    1
     6    23    24    1
     7    24    25   ar
     8    25    26   ar
     9    26    27   ar
    10    27    28    1
    11    27    29   ar
    12    29    30   ar
    13     2     3    1
    14     3     4    1
    15     4     5    1
    16     5    10    1
    17    10    11    2
    18    11    12    1
    19    12    13    2
    20    13    14    1
    21    14    15    2
    22    15    16    1
    23    16    17    2
    24    17    18    1
    25     5     6    1
    26     6     7    1
    27     7     2    1
    28    30    24   ar
    29    18    10    1
    30    18    14    1
    31     1     8    1
    32     1     9    1
    33    21    22    1
@<TRIPOS>MOLECULE
*****
 30 33 0 0 0
SMALL
GASTEIGER

@<TRIPOS>ATOM
      1 N           8.9220   -8.0357   28.9070 N.3     1  UNL1       -0.3162
      2 C           8.3190   -7.8949   27.5409 C.3     1  UNL1        0.1166
      3 C           7.6928   -8.2714   26.2308 C.3     1  UNL1        0.0739
      4 C           7.3427   -7.2071   25.2335 C.3     1  UNL1        0.2039
      5 N           7.6188   -5.7662   25.5462 N.pl3   1  UNL1       -0.1931
      6 C           8.2449   -5.3897   26.8562 C.3     1  UNL1        0.2039
      7 C           8.5950   -6.4541   27.8535 C.3     1  UNL1        0.0739
      8 H           8.9471   -9.0216   29.1675 H       1  UNL1        0.1192
      9 H           8.3580   -7.5198   29.5824 H       1  UNL1        0.1192
     10 C           7.2687   -4.7019   24.5489 C.2     1  UNL1        0.3205
     11 N           6.3291   -3.5965   24.9302 N.2     1  UNL1        0.0097
     12 C           5.9790   -2.5323   23.9330 C.2     1  UNL1        0.4717
     13 N           6.5685   -2.5732   22.5542 N.2     1  UNL1        0.0158
     14 C           7.5080   -3.6786   22.1728 C.2     1  UNL1        0.3714
     15 N           8.2394   -3.9791   20.8982 N.2     1  UNL1       -0.0339
     16 C           9.0415   -5.2292   21.1077 C.2     1  UNL1        0.2323
     17 C           8.8059   -5.7012   22.5119 C.2     1  UNL1        0.0486
     18 C           7.8581   -4.7429   23.1702 C.3     1  UNL1        0.2428
     19 C           8.2523   -9.3846   27.7025 C.2     1  UNL1        0.2353
     20 O           9.5163  -10.1840   27.8172 O.2     1  UNL1       -0.2737
     21 N           6.9214  -10.0750   27.7496 N.am    1  UNL1       -0.2994
     22 H           6.0918   -9.5503   27.6744 H       1  UNL1        0.1498
     23 C           6.8546  -11.5648   27.9113 C.3     1  UNL1        0.1164
     24 C           5.5235  -12.2534   27.9745 C.ar    1  UNL1       -0.0025
     25 C           5.1527  -13.2661   26.9320 C.ar    1  UNL1       -0.0018
     26 C           3.8215  -13.9546   26.9953 C.ar    1  UNL1        0.0111
     27 C           2.8613  -13.6305   28.1011 C.ar    1  UNL1        0.0577
     28 CL          1.5302  -14.3190   28.1644 Cl      1  UNL1       -0.0822
     29 C           3.2321  -12.6178   29.1436 C.ar    1  UNL1        0.0111
     30 C           4.5632  -11.9292   29.0804 C.ar    1  UNL1       -0.0018
@<TRIPOS>BOND
     1     1     2    1
     2     2    19    1
     3    19    20    2
     4    19    21   am
     5    21    23    1
     6    23    24    1
     7    24    25   ar
     8    25    26   ar
     9    26    27   ar
    10    27    28    1
    11    27    29   ar
    12    29    30   ar
    13     2     3    1
    14     3     4    1
    15     4     5    1
    16     5    10    1
    17    10    11    2
    18    11    12    1
    19    12    13    2
    20    13    14    1
    21    14    15    2
    22    15    16    1
    23    16    17    2
    24    17    18    1
    25     5     6    1
    26     6     7    1
    27     7     2    1
    28    30    24   ar
    29    18    10    1
    30    18    14    1
    31     1     8    1
    32     1     9    1
    33    21    22    1
@<TRIPOS>MOLECULE
*****
 30 33 0 0 0
SMALL
GASTEIGER

@<TRIPOS>ATOM
      1 N           8.2138   -7.5880   28.6590 N.3     1  UNL1       -0.3162
      2 C           8.2106   -7.7045   27.1636 C.3     1  UNL1        0.1166
      3 C           8.2006   -8.3254   25.7981 C.3     1  UNL1        0.0739
      4 C           8.2112   -7.4536   24.5777 C.3     1  UNL1        0.2039
      5 N           8.2316   -5.9606   24.7226 N.pl3   1  UNL1       -0.1931
      6 C           8.2415   -5.3397   26.0880 C.3     1  UNL1        0.2039
      7 C           8.2310   -6.2117   27.3085 C.3     1  UNL1        0.0739
      8 H           8.2015   -8.5202   29.0727 H       1  UNL1        0.1192
      9 H           7.3882   -7.0709   28.9615 H       1  UNL1        0.1192
     10 C           8.2421   -5.0887   23.5020 C.2     1  UNL1        0.3205
     11 N           9.3799   -5.1751   22.5284 N.2     1  UNL1        0.0097
     12 C           9.3905   -4.3033   21.3079 C.2     1  UNL1        0.4717
     13 N           8.2632   -3.3450   21.0610 N.2     1  UNL1        0.0158
     14 C           7.1254   -3.2586   22.0346 C.2     1  UNL1        0.3714
     15 N           5.8850   -2.4155   22.0564 N.2     1  UNL1       -0.0339
     16 C           5.1078   -2.7663   23.2905 C.2     1  UNL1        0.2323
     17 C           5.8679   -3.8262   24.0313 C.2     1  UNL1        0.0486
     18 C           7.1149   -4.1305   23.2551 C.3     1  UNL1        0.2428
     19 C           8.1912   -9.1569   27.5380 C.2     1  UNL1        0.2353
     20 O           9.4703   -9.8589   27.8858 O.2     1  UNL1       -0.2737
     21 N           6.8926   -9.9072   27.5646 N.am    1  UNL1       -0.2994
     22 H           6.0531   -9.4464   27.3363 H       1  UNL1        0.1498
     23 C           6.8732  -11.3596   27.9390 C.3     1  UNL1        0.1164
     24 C           5.5732  -12.1070   27.9771 C.ar    1  UNL1       -0.0025
     25 C           4.6051  -11.8713   29.0983 C.ar    1  UNL1       -0.0018
     26 C           3.3051  -12.6187   29.1363 C.ar    1  UNL1        0.0111
     27 C           2.9731  -13.6017   28.0531 C.ar    1  UNL1        0.0577
     28 CL          1.6732  -14.3491   28.0911 Cl      1  UNL1       -0.0822
     29 C           3.9412  -13.8374   26.9319 C.ar    1  UNL1        0.0111
     30 C           5.2412  -13.0901   26.8938 C.ar    1  UNL1       -0.0018
@<TRIPOS>BOND
     1     1     2    1
     2     2    19    1
     3    19    20    2
     4    19    21   am
     5    21    23    1
     6    23    24    1
     7    24    25   ar
     8    25    26   ar
     9    26    27   ar
    10    27    28    1
    11    27    29   ar
    12    29    30   ar
    13     2     3    1
    14     3     4    1
    15     4     5    1
    16     5    10    1
    17    10    11    2
    18    11    12    1
    19    12    13    2
    20    13    14    1
    21    14    15    2
    22    15    16    1
    23    16    17    2
    24    17    18    1
    25     5     6    1
    26     6     7    1
    27     7     2    1
    28    30    24   ar
    29    18    10    1
    30    18    14    1
    31     1     8    1
    32     1     9    1
    33    21    22    1
