@<TRIPOS>MOLECULE
*****
 33 36 0 0 0
SMALL
GASTEIGER

@<TRIPOS>ATOM
      1 C         -12.1907  -18.7009   20.8448 C.3     1  UNL1        0.0227
      2 C         -13.3456  -18.4245   21.7614 C.3     1  UNL1        0.0191
      3 C         -13.0949  -17.9374   23.1578 C.3     1  UNL1        0.0723
      4 N          -8.9732  -16.5962   24.3669 N.pl3   1  UNL1       -0.3046
      5 C          -9.5982  -17.7883   25.0288 C.3     1  UNL1        0.1081
      6 C         -10.9722  -18.2354   24.6258 C.3     1  UNL1        0.0938
      7 N         -11.7210  -17.4904   23.5608 N.3     1  UNL1       -0.2698
      8 C         -11.0959  -16.2983   22.8988 C.3     1  UNL1        0.0938
      9 C          -9.7220  -15.8512   23.3019 C.3     1  UNL1        0.1081
     10 C          -5.1157  -15.6860   24.1636 C.ar    1  UNL1        0.0697
     11 C          -4.8514  -15.2549   25.5758 C.ar    1  UNL1        0.0104
     12 C          -5.9610  -15.2709   26.5850 C.ar    1  UNL1        0.0020
     13 C          -7.3349  -15.7180   26.1821 C.ar    1  UNL1        0.0146
     14 C          -7.5992  -16.1491   24.7699 C.ar    1  UNL1        0.0486
     15 C          -6.4896  -16.1331   23.7607 C.ar    1  UNL1        0.0248
     16 N          -2.8964  -15.6539   22.1452 N.1     1  UNL1       -0.1908
     17 C          -4.0061  -15.6699   23.1544 C.1     1  UNL1        0.1005
     18 C         -11.0856  -19.6145   21.2853 C.3     1  UNL1        0.0897
     19 N          -9.6691  -19.3251   20.8855 N.am    1  UNL1       -0.3009
     20 C          -8.5393  -19.7164   21.7913 C.2     1  UNL1        0.2458
     21 O          -8.8260  -20.3971   23.0969 O.2     1  UNL1       -0.2701
     22 H          -9.4810  -18.8783   20.0287 H       1  UNL1        0.1497
     23 C          -7.1228  -19.4270   21.3916 C.ar    1  UNL1        0.0534
     24 C          -6.7834  -19.1932   19.9493 C.ar    1  UNL1        0.0045
     25 C          -5.3669  -18.9038   19.5495 C.ar    1  UNL1        0.0002
     26 C          -4.2899  -18.8482   20.5920 C.ar    1  UNL1        0.0005
     27 C          -4.6292  -19.0819   22.0343 C.ar    1  UNL1        0.0002
     28 C          -6.0458  -19.3713   22.4341 C.ar    1  UNL1        0.0045
     29 C          -2.8734  -18.5588   20.1923 C.ar    1  UNL1        0.0070
     30 C          -2.4385  -17.8076   18.9689 C.ar    1  UNL1        0.0075
     31 C          -0.9394  -17.7543   18.9662 C.ar    1  UNL1        0.0355
     32 S          -0.4479  -18.4725   20.1880 S.2     1  UNL1       -0.0859
     33 C          -1.6431  -18.9697   20.9457 C.ar    1  UNL1        0.0354
@<TRIPOS>BOND
     1    16    17    3
     2    17    10    1
     3    10    11   ar
     4    11    12   ar
     5    12    13   ar
     6    13    14   ar
     7    14     4    1
     8     4     5    1
     9     5     6    1
    10     6     7    1
    11     7     3    1
    12     3     2    1
    13     2     1    1
    14     1    18    1
    15    18    19    1
    16    19    20   am
    17    20    21    2
    18    20    23    1
    19    23    24   ar
    20    24    25   ar
    21    25    26   ar
    22    26    29    1
    23    29    30   ar
    24    30    31   ar
    25    31    32   ar
    26    32    33   ar
    27    26    27   ar
    28    27    28   ar
    29     7     8    1
    30     8     9    1
    31    14    15   ar
    32    15    10   ar
    33     9     4    1
    34    28    23   ar
    35    33    29   ar
    36    19    22    1
@<TRIPOS>MOLECULE
*****
 33 36 0 0 0
SMALL
GASTEIGER

@<TRIPOS>ATOM
      1 C          -3.1381    3.7553   22.4162 C.3     1  UNL1        0.0227
      2 C          -2.6516    4.8733   23.2900 C.3     1  UNL1        0.0191
      3 C          -1.5441    4.6303   24.2719 C.3     1  UNL1        0.0723
      4 N           1.7918    1.7906   23.2434 N.pl3   1  UNL1       -0.3046
      5 C           1.8018    3.1881   22.6986 C.3     1  UNL1        0.1081
      6 C           0.6898    4.1348   23.0415 C.3     1  UNL1        0.0938
      7 N          -0.4321    3.6838   23.9291 N.3     1  UNL1       -0.2698
      8 C          -0.4421    2.2861   24.4738 C.3     1  UNL1        0.0938
      9 C           0.6699    1.3396   24.1310 C.3     1  UNL1        0.1081
     10 C           5.1149    0.3343   21.6351 C.ar    1  UNL1        0.0697
     11 C           5.1278   -1.0490   22.2149 C.ar    1  UNL1        0.0104
     12 C           4.0287   -1.4858   23.1375 C.ar    1  UNL1        0.0020
     13 C           2.9167   -0.5393   23.4803 C.ar    1  UNL1        0.0146
     14 C           2.9038    0.8440   22.9006 C.ar    1  UNL1        0.0486
     15 C           4.0029    1.2808   21.9780 C.ar    1  UNL1        0.0248
     16 N           7.3131    1.2080   19.7899 N.1     1  UNL1       -0.1908
     17 C           6.2140    0.7711   20.7125 C.1     1  UNL1        0.1005
     18 C          -2.5301    3.5432   21.0615 C.3     1  UNL1        0.0897
     19 N          -1.5116    2.4610   20.8577 N.am    1  UNL1       -0.3009
     20 C          -0.4693    2.6038   19.7884 C.2     1  UNL1        0.2458
     21 O          -0.4456    3.8287   18.9230 O.2     1  UNL1       -0.2701
     22 H          -1.5272    1.6571   21.4257 H       1  UNL1        0.1497
     23 C           0.5492    1.5217   19.5846 C.ar    1  UNL1        0.0534
     24 C           1.7061    1.7457   18.6563 C.ar    1  UNL1        0.0045
     25 C           2.7246    0.6636   18.4525 C.ar    1  UNL1        0.0002
     26 C           2.5863   -0.6426   19.1769 C.ar    1  UNL1        0.0005
     27 C           1.4295   -0.8667   20.1050 C.ar    1  UNL1        0.0002
     28 C           0.4109    0.2155   20.3089 C.ar    1  UNL1        0.0045
     29 C           3.6048   -1.7247   18.9730 C.ar    1  UNL1        0.0070
     30 C           3.5342   -3.1174   19.5257 C.ar    1  UNL1        0.0075
     31 C           4.7585   -3.8576   19.0750 C.ar    1  UNL1        0.0355
     32 S           5.5858   -2.9223   18.2438 S.2     1  UNL1       -0.0859
     33 C           4.8728   -1.6042   18.1807 C.ar    1  UNL1        0.0354
@<TRIPOS>BOND
     1    16    17    3
     2    17    10    1
     3    10    11   ar
     4    11    12   ar
     5    12    13   ar
     6    13    14   ar
     7    14     4    1
     8     4     5    1
     9     5     6    1
    10     6     7    1
    11     7     3    1
    12     3     2    1
    13     2     1    1
    14     1    18    1
    15    18    19    1
    16    19    20   am
    17    20    21    2
    18    20    23    1
    19    23    24   ar
    20    24    25   ar
    21    25    26   ar
    22    26    29    1
    23    29    30   ar
    24    30    31   ar
    25    31    32   ar
    26    32    33   ar
    27    26    27   ar
    28    27    28   ar
    29     7     8    1
    30     8     9    1
    31    14    15   ar
    32    15    10   ar
    33     9     4    1
    34    28    23   ar
    35    33    29   ar
    36    19    22    1
@<TRIPOS>MOLECULE
*****
 33 36 0 0 0
SMALL
GASTEIGER

@<TRIPOS>ATOM
      1 C          -3.1510    3.6975   22.4059 C.3     1  UNL1        0.0227
      2 C          -2.6844    4.7508   23.3667 C.3     1  UNL1        0.0191
      3 C          -1.5662    4.4530   24.3211 C.3     1  UNL1        0.0723
      4 N           2.0630    2.2021   22.9027 N.pl3   1  UNL1       -0.3046
      5 C           1.0528    1.5211   23.7777 C.3     1  UNL1        0.1081
      6 C          -0.1571    2.2714   24.2505 C.3     1  UNL1        0.0938
      7 N          -0.3565    3.7027   23.8483 N.3     1  UNL1       -0.2698
      8 C           0.6538    4.3836   22.9733 C.3     1  UNL1        0.0938
      9 C           1.8635    3.6333   22.5005 C.3     1  UNL1        0.1081
     10 C           4.6944   -0.7223   22.3791 C.ar    1  UNL1        0.0697
     11 C           5.6923   -0.0488   21.4843 C.ar    1  UNL1        0.0104
     12 C           5.4804    1.3749   21.0622 C.ar    1  UNL1        0.0020
     13 C           4.2706    2.1252   21.5350 C.ar    1  UNL1        0.0146
     14 C           3.2728    1.4518   22.4299 C.ar    1  UNL1        0.0486
     15 C           3.4847    0.0281   22.8519 C.ar    1  UNL1        0.0248
     16 N           5.1182   -3.5697   23.2233 N.1     1  UNL1       -0.1908
     17 C           4.9063   -2.1460   22.8012 C.1     1  UNL1        0.1005
     18 C          -2.4738    3.5419   21.0766 C.3     1  UNL1        0.0897
     19 N          -1.4606    2.4547   20.8738 N.am    1  UNL1       -0.3009
     20 C          -0.4146    2.5935   19.8076 C.2     1  UNL1        0.2458
     21 O          -0.3820    3.8196   18.9441 O.2     1  UNL1       -0.2701
     22 H          -1.4820    1.6499   21.4405 H       1  UNL1        0.1497
     23 C           0.5986    1.5062   19.6048 C.ar    1  UNL1        0.0534
     24 C           0.4501    0.1988   20.3250 C.ar    1  UNL1        0.0045
     25 C           1.4633   -0.8885   20.1222 C.ar    1  UNL1        0.0002
     26 C           2.6250   -0.6684   19.1992 C.ar    1  UNL1        0.0005
     27 C           2.7736    0.6389   18.4790 C.ar    1  UNL1        0.0002
     28 C           1.7603    1.7263   18.6818 C.ar    1  UNL1        0.0045
     29 C           3.6382   -1.7557   18.9965 C.ar    1  UNL1        0.0070
     30 C           3.5263   -3.1682   19.4888 C.ar    1  UNL1        0.0075
     31 C           4.7602   -3.9069   19.0623 C.ar    1  UNL1        0.0355
     32 S           5.6347   -2.9509   18.3065 S.2     1  UNL1       -0.0859
     33 C           4.9414   -1.6215   18.2657 C.ar    1  UNL1        0.0354
@<TRIPOS>BOND
     1    16    17    3
     2    17    10    1
     3    10    11   ar
     4    11    12   ar
     5    12    13   ar
     6    13    14   ar
     7    14     4    1
     8     4     5    1
     9     5     6    1
    10     6     7    1
    11     7     3    1
    12     3     2    1
    13     2     1    1
    14     1    18    1
    15    18    19    1
    16    19    20   am
    17    20    21    2
    18    20    23    1
    19    23    24   ar
    20    24    25   ar
    21    25    26   ar
    22    26    29    1
    23    29    30   ar
    24    30    31   ar
    25    31    32   ar
    26    32    33   ar
    27    26    27   ar
    28    27    28   ar
    29     7     8    1
    30     8     9    1
    31    14    15   ar
    32    15    10   ar
    33     9     4    1
    34    28    23   ar
    35    33    29   ar
    36    19    22    1
@<TRIPOS>MOLECULE
*****
 33 36 0 0 0
SMALL
GASTEIGER

@<TRIPOS>ATOM
      1 C          -2.3308    4.7521   20.7545 C.3     1  UNL1        0.0227
      2 C          -2.2639    4.5742   19.2666 C.3     1  UNL1        0.0191
      3 C          -1.0129    4.9380   18.5232 C.3     1  UNL1        0.0723
      4 N           2.8405    2.7932   19.4181 N.pl3   1  UNL1       -0.3046
      5 C           1.9108    2.2588   18.3694 C.3     1  UNL1        0.1081
      6 C           0.6263    2.9737   18.0710 C.3     1  UNL1        0.0938
      7 N           0.2715    4.2231   18.8215 N.3     1  UNL1       -0.2698
      8 C           1.2013    4.7575   19.8703 C.3     1  UNL1        0.0938
      9 C           2.4858    4.0426   20.1686 C.3     1  UNL1        0.1081
     10 C           5.8769    0.2555   19.1180 C.ar    1  UNL1        0.0697
     11 C           6.6939    0.6483   20.3130 C.ar    1  UNL1        0.0104
     12 C           6.2264    1.7562   21.2098 C.ar    1  UNL1        0.0020
     13 C           4.9420    2.4711   20.9115 C.ar    1  UNL1        0.0146
     14 C           4.1250    2.0782   19.7165 C.ar    1  UNL1        0.0486
     15 C           4.5925    0.9704   18.8197 C.ar    1  UNL1        0.0248
     16 N           6.8119   -1.9602   17.3245 N.1     1  UNL1       -0.1908
     17 C           6.3444   -0.8524   18.2213 C.1     1  UNL1        0.1005
     18 C          -2.0752    3.5852   21.6617 C.3     1  UNL1        0.0897
     19 N          -1.1292    2.5004   21.2397 N.am    1  UNL1       -0.3009
     20 C          -0.0857    2.0017   22.1950 C.2     1  UNL1        0.2458
     21 O           0.0118    2.5880   23.5722 O.2     1  UNL1       -0.2701
     22 H          -1.1932    2.1156   20.3358 H       1  UNL1        0.1497
     23 C           0.8603    0.9168   21.7730 C.ar    1  UNL1        0.0534
     24 C           0.5638    0.0957   20.5532 C.ar    1  UNL1        0.0045
     25 C           1.5097   -0.9892   20.1312 C.ar    1  UNL1        0.0002
     26 C           2.7523   -1.2530   20.9290 C.ar    1  UNL1        0.0005
     27 C           3.0489   -0.4319   22.1488 C.ar    1  UNL1        0.0002
     28 C           2.1029    0.6530   22.5708 C.ar    1  UNL1        0.0045
     29 C           3.6983   -2.3378   20.5070 C.ar    1  UNL1        0.0070
     30 C           3.5456   -3.2227   19.3054 C.ar    1  UNL1        0.0075
     31 C           4.7160   -4.1601   19.2683 C.ar    1  UNL1        0.0355
     32 S           5.5921   -3.8546   20.4470 S.2     1  UNL1       -0.0859
     33 C           4.9632   -2.7284   21.2126 C.ar    1  UNL1        0.0354
@<TRIPOS>BOND
     1    16    17    3
     2    17    10    1
     3    10    11   ar
     4    11    12   ar
     5    12    13   ar
     6    13    14   ar
     7    14     4    1
     8     4     5    1
     9     5     6    1
    10     6     7    1
    11     7     3    1
    12     3     2    1
    13     2     1    1
    14     1    18    1
    15    18    19    1
    16    19    20   am
    17    20    21    2
    18    20    23    1
    19    23    24   ar
    20    24    25   ar
    21    25    26   ar
    22    26    29    1
    23    29    30   ar
    24    30    31   ar
    25    31    32   ar
    26    32    33   ar
    27    26    27   ar
    28    27    28   ar
    29     7     8    1
    30     8     9    1
    31    14    15   ar
    32    15    10   ar
    33     9     4    1
    34    28    23   ar
    35    33    29   ar
    36    19    22    1
@<TRIPOS>MOLECULE
*****
 33 36 0 0 0
SMALL
GASTEIGER

@<TRIPOS>ATOM
      1 C          -0.2021    5.4881   23.1221 C.3     1  UNL1        0.0227
      2 C           1.2025    5.8818   22.7724 C.3     1  UNL1        0.0191
      3 C           1.6269    5.9489   21.3353 C.3     1  UNL1        0.0723
      4 N           3.6207    2.4036   19.4103 N.pl3   1  UNL1       -0.3046
      5 C           2.3544    2.9591   18.8289 C.3     1  UNL1        0.1081
      6 C           1.6898    4.1409   19.4706 C.3     1  UNL1        0.0938
      7 N           2.2915    4.7671   20.6936 N.3     1  UNL1       -0.2698
      8 C           3.5578    4.2116   21.2750 C.3     1  UNL1        0.0938
      9 C           4.2223    3.0299   20.6333 C.3     1  UNL1        0.1081
     10 C           6.3171   -0.3856   18.5738 C.ar    1  UNL1        0.0697
     11 C           5.6146   -1.1417   17.4854 C.ar    1  UNL1        0.0104
     12 C           4.2474   -0.7161   17.0387 C.ar    1  UNL1        0.0020
     13 C           3.5827    0.4656   17.6803 C.ar    1  UNL1        0.0146
     14 C           4.2853    1.2218   18.7686 C.ar    1  UNL1        0.0486
     15 C           5.6525    0.7962   19.2154 C.ar    1  UNL1        0.0248
     16 N           9.0516   -1.2368   19.4673 N.1     1  UNL1       -0.1908
     17 C           7.6844   -0.8112   19.0205 C.1     1  UNL1        0.1005
     18 C          -0.4995    4.0870   23.5672 C.3     1  UNL1        0.0897
     19 N           0.4174    2.9657   23.1775 N.am    1  UNL1       -0.3009
     20 C           0.0754    2.0885   22.0098 C.2     1  UNL1        0.2458
     21 O          -1.1836    2.3326   21.2318 O.2     1  UNL1       -0.2701
     22 H           1.2438    2.8055   23.6882 H       1  UNL1        0.1497
     23 C           0.9923    0.9672   21.6201 C.ar    1  UNL1        0.0534
     24 C           0.6430    0.0808   20.4614 C.ar    1  UNL1        0.0045
     25 C           1.5600   -1.0404   20.0717 C.ar    1  UNL1        0.0002
     26 C           2.8263   -1.2754   20.8407 C.ar    1  UNL1        0.0005
     27 C           3.1756   -0.3892   21.9993 C.ar    1  UNL1        0.0002
     28 C           2.2586    0.7322   22.3890 C.ar    1  UNL1        0.0045
     29 C           3.7432   -2.3967   20.4510 C.ar    1  UNL1        0.0070
     30 C           3.4992   -3.3965   19.3597 C.ar    1  UNL1        0.0075
     31 C           4.6704   -4.3328   19.3184 C.ar    1  UNL1        0.0355
     32 S           5.6382   -3.9116   20.3843 S.2     1  UNL1       -0.0859
     33 C           5.0653   -2.7152   21.0842 C.ar    1  UNL1        0.0354
@<TRIPOS>BOND
     1    16    17    3
     2    17    10    1
     3    10    11   ar
     4    11    12   ar
     5    12    13   ar
     6    13    14   ar
     7    14     4    1
     8     4     5    1
     9     5     6    1
    10     6     7    1
    11     7     3    1
    12     3     2    1
    13     2     1    1
    14     1    18    1
    15    18    19    1
    16    19    20   am
    17    20    21    2
    18    20    23    1
    19    23    24   ar
    20    24    25   ar
    21    25    26   ar
    22    26    29    1
    23    29    30   ar
    24    30    31   ar
    25    31    32   ar
    26    32    33   ar
    27    26    27   ar
    28    27    28   ar
    29     7     8    1
    30     8     9    1
    31    14    15   ar
    32    15    10   ar
    33     9     4    1
    34    28    23   ar
    35    33    29   ar
    36    19    22    1
@<TRIPOS>MOLECULE
*****
 33 36 0 0 0
SMALL
GASTEIGER

@<TRIPOS>ATOM
      1 C           0.3649    4.8294   22.5267 C.3     1  UNL1        0.0227
      2 C          -0.1825    4.8019   21.1303 C.3     1  UNL1        0.0191
      3 C          -0.6924    3.5162   20.5498 C.3     1  UNL1        0.0723
      4 N           2.1953    0.2514   19.4307 N.pl3   1  UNL1       -0.3046
      5 C           0.8954   -0.0925   20.0954 C.3     1  UNL1        0.1081
      6 C          -0.0672    0.9958   20.4685 C.3     1  UNL1        0.0938
      7 N           0.2701    2.4280   20.1768 N.3     1  UNL1       -0.2698
      8 C           1.5702    2.7719   19.5121 C.3     1  UNL1        0.0938
      9 C           2.5327    1.6836   19.1391 C.3     1  UNL1        0.1081
     10 C           3.8846   -3.3292   19.1565 C.ar    1  UNL1        0.0697
     11 C           5.0830   -3.0133   18.3116 C.ar    1  UNL1        0.0104
     12 C           5.3189   -1.6091   17.8398 C.ar    1  UNL1        0.0020
     13 C           4.3564   -0.5209   18.2128 C.ar    1  UNL1        0.0146
     14 C           3.1580   -0.8368   19.0577 C.ar    1  UNL1        0.0486
     15 C           2.9221   -2.2410   19.5296 C.ar    1  UNL1        0.0248
     16 N           3.4129   -6.1376   20.1003 N.1     1  UNL1       -0.1908
     17 C           3.6487   -4.7334   19.6284 C.1     1  UNL1        0.1005
     18 C           0.6663    3.5445   23.2395 C.3     1  UNL1        0.0897
     19 N           1.8001    2.6783   22.7768 N.am    1  UNL1       -0.3009
     20 C           2.0219    1.3343   23.4050 C.2     1  UNL1        0.2458
     21 O           1.1099    0.8566   24.4959 O.2     1  UNL1       -0.2701
     22 H           2.3986    2.9918   22.0608 H       1  UNL1        0.1497
     23 C           3.1556    0.4681   22.9422 C.ar    1  UNL1        0.0534
     24 C           3.1272   -1.0085   23.2054 C.ar    1  UNL1        0.0045
     25 C           4.2610   -1.8747   22.7426 C.ar    1  UNL1        0.0002
     26 C           5.4232   -1.2645   22.0168 C.ar    1  UNL1        0.0005
     27 C           5.4517    0.2119   21.7536 C.ar    1  UNL1        0.0002
     28 C           4.3179    1.0783   22.2164 C.ar    1  UNL1        0.0045
     29 C           6.5570   -2.1307   21.5540 C.ar    1  UNL1        0.0070
     30 C           6.7162   -3.5965   21.8301 C.ar    1  UNL1        0.0075
     31 C           7.9882   -4.0550   21.1806 C.ar    1  UNL1        0.0355
     32 S           8.6151   -2.8725   20.5032 S.2     1  UNL1       -0.0859
     33 C           7.7306   -1.6833   20.7339 C.ar    1  UNL1        0.0354
@<TRIPOS>BOND
     1    16    17    3
     2    17    10    1
     3    10    11   ar
     4    11    12   ar
     5    12    13   ar
     6    13    14   ar
     7    14     4    1
     8     4     5    1
     9     5     6    1
    10     6     7    1
    11     7     3    1
    12     3     2    1
    13     2     1    1
    14     1    18    1
    15    18    19    1
    16    19    20   am
    17    20    21    2
    18    20    23    1
    19    23    24   ar
    20    24    25   ar
    21    25    26   ar
    22    26    29    1
    23    29    30   ar
    24    30    31   ar
    25    31    32   ar
    26    32    33   ar
    27    26    27   ar
    28    27    28   ar
    29     7     8    1
    30     8     9    1
    31    14    15   ar
    32    15    10   ar
    33     9     4    1
    34    28    23   ar
    35    33    29   ar
    36    19    22    1
@<TRIPOS>MOLECULE
*****
 33 36 0 0 0
SMALL
GASTEIGER

@<TRIPOS>ATOM
      1 C          -0.5897    0.7979   27.6725 C.3     1  UNL1        0.0227
      2 C          -0.1050   -0.0684   28.7971 C.3     1  UNL1        0.0191
      3 C           1.2763    0.1229   29.3495 C.3     1  UNL1        0.0723
      4 N           1.8676    2.3734   33.2011 N.pl3   1  UNL1       -0.3046
      5 C           0.7653    2.7681   32.2636 C.3     1  UNL1        0.1081
      6 C           0.5682    2.0179   30.9796 C.3     1  UNL1        0.0938
      7 N           1.4734    0.8731   30.6333 N.3     1  UNL1       -0.2698
      8 C           2.5758    0.4784   31.5710 C.3     1  UNL1        0.0938
      9 C           2.7729    1.2286   32.8549 C.3     1  UNL1        0.1081
     10 C           2.8896    3.1909   36.9478 C.ar    1  UNL1        0.0697
     11 C           2.4590    4.6238   37.0529 C.ar    1  UNL1        0.0104
     12 C           1.8312    5.3067   35.8741 C.ar    1  UNL1        0.0020
     13 C           1.6341    4.5566   34.5902 C.ar    1  UNL1        0.0146
     14 C           2.0647    3.1236   34.4851 C.ar    1  UNL1        0.0486
     15 C           2.6925    2.4408   35.6639 C.ar    1  UNL1        0.0248
     16 N           4.1452    1.8251   39.3054 N.1     1  UNL1       -0.1908
     17 C           3.5174    2.5080   38.1266 C.1     1  UNL1        0.1005
     18 C           0.3933    1.4034   26.7149 C.3     1  UNL1        0.0897
     19 N           0.8702    0.6151   25.5312 N.am    1  UNL1       -0.3009
     20 C           2.3282    0.5987   25.1791 C.2     1  UNL1        0.2458
     21 O           3.3093    1.3707   26.0106 O.2     1  UNL1       -0.2701
     22 H           0.2262    0.1084   24.9855 H       1  UNL1        0.1497
     23 C           2.8051   -0.1896   23.9954 C.ar    1  UNL1        0.0534
     24 C           2.2760    0.1191   22.6262 C.ar    1  UNL1        0.0045
     25 C           2.7529   -0.6692   21.4425 C.ar    1  UNL1        0.0002
     26 C           3.7589   -1.7663   21.6280 C.ar    1  UNL1        0.0005
     27 C           4.2880   -2.0750   22.9972 C.ar    1  UNL1        0.0002
     28 C           3.8111   -1.2867   24.1810 C.ar    1  UNL1        0.0045
     29 C           4.2358   -2.5546   20.4444 C.ar    1  UNL1        0.0070
     30 C           3.8866   -3.9804   20.1360 C.ar    1  UNL1        0.0075
     31 C           4.5806   -4.3626   18.8623 C.ar    1  UNL1        0.0355
     32 S           5.3587   -3.1728   18.3835 S.2     1  UNL1       -0.0859
     33 C           5.1456   -2.0555   19.3612 C.ar    1  UNL1        0.0354
@<TRIPOS>BOND
     1    16    17    3
     2    17    10    1
     3    10    11   ar
     4    11    12   ar
     5    12    13   ar
     6    13    14   ar
     7    14     4    1
     8     4     5    1
     9     5     6    1
    10     6     7    1
    11     7     3    1
    12     3     2    1
    13     2     1    1
    14     1    18    1
    15    18    19    1
    16    19    20   am
    17    20    21    2
    18    20    23    1
    19    23    24   ar
    20    24    25   ar
    21    25    26   ar
    22    26    29    1
    23    29    30   ar
    24    30    31   ar
    25    31    32   ar
    26    32    33   ar
    27    26    27   ar
    28    27    28   ar
    29     7     8    1
    30     8     9    1
    31    14    15   ar
    32    15    10   ar
    33     9     4    1
    34    28    23   ar
    35    33    29   ar
    36    19    22    1
@<TRIPOS>MOLECULE
*****
 33 36 0 0 0
SMALL
GASTEIGER

@<TRIPOS>ATOM
      1 C          -0.0998    3.7138   26.0770 C.3     1  UNL1        0.0227
      2 C          -0.7091    3.1320   27.3182 C.3     1  UNL1        0.0191
      3 C          -0.5588    1.6689   27.6126 C.3     1  UNL1        0.0723
      4 N           2.2986    0.2988   30.8076 N.pl3   1  UNL1       -0.3046
      5 C           2.1583   -0.4891   29.5390 C.3     1  UNL1        0.1081
      6 C           1.2058   -0.0324   28.4739 C.3     1  UNL1        0.0938
      7 N           0.3937    1.2122   28.6776 N.3     1  UNL1       -0.2698
      8 C           0.5341    2.0001   29.9463 C.3     1  UNL1        0.0938
      9 C           1.4865    1.5434   31.0113 C.3     1  UNL1        0.1081
     10 C           5.0393   -1.8411   32.7206 C.ar    1  UNL1        0.0697
     11 C           5.1560   -1.0712   34.0027 C.ar    1  UNL1        0.0104
     12 C           4.3203    0.1553   34.2197 C.ar    1  UNL1        0.0020
     13 C           3.3678    0.6120   33.1547 C.ar    1  UNL1        0.0146
     14 C           3.2511   -0.1578   31.8727 C.ar    1  UNL1        0.0486
     15 C           4.0869   -1.3844   31.6556 C.ar    1  UNL1        0.0248
     16 N           6.7108   -4.2942   32.2865 N.1     1  UNL1       -0.1908
     17 C           5.8751   -3.0676   32.5036 C.1     1  UNL1        0.1005
     18 C          -0.4421    3.1404   24.7339 C.3     1  UNL1        0.0897
     19 N           0.4200    2.0696   24.1338 N.am    1  UNL1       -0.3009
     20 C           0.3417    1.7795   22.6641 C.2     1  UNL1        0.2458
     21 O          -0.5987    2.5603   21.7947 O.2     1  UNL1       -0.2701
     22 H           1.0372    1.5572   24.7045 H       1  UNL1        0.1497
     23 C           1.2038    0.7087   22.0641 C.ar    1  UNL1        0.0534
     24 C           2.3467    0.1377   22.8501 C.ar    1  UNL1        0.0045
     25 C           3.2088   -0.9331   22.2500 C.ar    1  UNL1        0.0002
     26 C           2.9280   -1.4330   20.8639 C.ar    1  UNL1        0.0005
     27 C           1.7851   -0.8621   20.0779 C.ar    1  UNL1        0.0002
     28 C           0.9229    0.2087   20.6780 C.ar    1  UNL1        0.0045
     29 C           3.7900   -2.5038   20.2639 C.ar    1  UNL1        0.0070
     30 C           3.3436   -3.5507   19.2866 C.ar    1  UNL1        0.0075
     31 C           4.5275   -4.4097   18.9544 C.ar    1  UNL1        0.0355
     32 S           5.7057   -3.8937   19.7264 S.2     1  UNL1       -0.0859
     33 C           5.2499   -2.7159   20.5356 C.ar    1  UNL1        0.0354
@<TRIPOS>BOND
     1    16    17    3
     2    17    10    1
     3    10    11   ar
     4    11    12   ar
     5    12    13   ar
     6    13    14   ar
     7    14     4    1
     8     4     5    1
     9     5     6    1
    10     6     7    1
    11     7     3    1
    12     3     2    1
    13     2     1    1
    14     1    18    1
    15    18    19    1
    16    19    20   am
    17    20    21    2
    18    20    23    1
    19    23    24   ar
    20    24    25   ar
    21    25    26   ar
    22    26    29    1
    23    29    30   ar
    24    30    31   ar
    25    31    32   ar
    26    32    33   ar
    27    26    27   ar
    28    27    28   ar
    29     7     8    1
    30     8     9    1
    31    14    15   ar
    32    15    10   ar
    33     9     4    1
    34    28    23   ar
    35    33    29   ar
    36    19    22    1
@<TRIPOS>MOLECULE
*****
 33 36 0 0 0
SMALL
GASTEIGER

@<TRIPOS>ATOM
      1 C          -3.8969    3.2444   20.8285 C.3     1  UNL1        0.0227
      2 C          -4.5001    3.8328   22.0695 C.3     1  UNL1        0.0191
      3 C          -3.6715    4.7055   22.9650 C.3     1  UNL1        0.0723
      4 N          -1.4105    2.8932   26.4079 N.pl3   1  UNL1       -0.3046
      5 C          -0.7772    2.9661   25.0501 C.3     1  UNL1        0.1081
      6 C          -1.5309    3.5702   23.9024 C.3     1  UNL1        0.0938
      7 N          -2.9179    4.1014   24.1126 N.3     1  UNL1       -0.2698
      8 C          -3.5511    4.0285   25.4704 C.3     1  UNL1        0.0938
      9 C          -2.7975    3.4244   26.6180 C.3     1  UNL1        0.1081
     10 C           1.0725    2.5177   29.4810 C.ar    1  UNL1        0.0697
     11 C           0.8504    1.0811   29.8509 C.ar    1  UNL1        0.0104
     12 C          -0.1252    0.2485   29.0731 C.ar    1  UNL1        0.0020
     13 C          -0.8789    0.8525   27.9255 C.ar    1  UNL1        0.0146
     14 C          -0.6569    2.2891   27.5556 C.ar    1  UNL1        0.0486
     15 C           0.3188    3.1217   28.3333 C.ar    1  UNL1        0.0248
     16 N           3.0238    4.1828   31.0364 N.1     1  UNL1       -0.1908
     17 C           2.0482    3.3502   30.2587 C.1     1  UNL1        0.1005
     18 C          -2.4762    3.5583   20.4636 C.3     1  UNL1        0.0897
     19 N          -1.4480    2.4664   20.4450 N.am    1  UNL1       -0.3009
     20 C          -0.3522    2.4854   19.4208 C.2     1  UNL1        0.2458
     21 O          -0.2847    3.5965   18.4152 O.2     1  UNL1       -0.2701
     22 H          -1.4923    1.7372   21.1050 H       1  UNL1        0.1497
     23 C           0.6761    1.3936   19.4021 C.ar    1  UNL1        0.0534
     24 C           0.5163    0.1975   20.2932 C.ar    1  UNL1        0.0045
     25 C           1.5446   -0.8944   20.2746 C.ar    1  UNL1        0.0002
     26 C           2.7327   -0.7903   19.3649 C.ar    1  UNL1        0.0005
     27 C           2.8925    0.4057   18.4738 C.ar    1  UNL1        0.0002
     28 C           1.8642    1.4976   18.4924 C.ar    1  UNL1        0.0045
     29 C           3.7609   -1.8822   19.3463 C.ar    1  UNL1        0.0070
     30 C           3.4842   -3.3551   19.4083 C.ar    1  UNL1        0.0075
     31 C           4.7987   -4.0762   19.3627 C.ar    1  UNL1        0.0355
     32 S           5.8879   -3.0488   19.2725 S.2     1  UNL1       -0.0859
     33 C           5.2467   -1.6929   19.2624 C.ar    1  UNL1        0.0354
@<TRIPOS>BOND
     1    16    17    3
     2    17    10    1
     3    10    11   ar
     4    11    12   ar
     5    12    13   ar
     6    13    14   ar
     7    14     4    1
     8     4     5    1
     9     5     6    1
    10     6     7    1
    11     7     3    1
    12     3     2    1
    13     2     1    1
    14     1    18    1
    15    18    19    1
    16    19    20   am
    17    20    21    2
    18    20    23    1
    19    23    24   ar
    20    24    25   ar
    21    25    26   ar
    22    26    29    1
    23    29    30   ar
    24    30    31   ar
    25    31    32   ar
    26    32    33   ar
    27    26    27   ar
    28    27    28   ar
    29     7     8    1
    30     8     9    1
    31    14    15   ar
    32    15    10   ar
    33     9     4    1
    34    28    23   ar
    35    33    29   ar
    36    19    22    1
