@<TRIPOS>MOLECULE
*****
 28 31 0 0 0
SMALL
GASTEIGER

@<TRIPOS>ATOM
      1 C          -3.0853  -20.4026   20.5185 C.3     1  UNL1        0.0061
      2 C          -4.4657  -19.8201   20.5894 C.3     1  UNL1        0.0373
      3 C          -4.7877  -21.1906   20.0714 C.3     1  UNL1        0.0075
      4 C          -6.2117  -21.5729   19.7957 C.3     1  UNL1        0.0219
      5 C          -7.3139  -20.5846   20.0381 C.3     1  UNL1        0.0950
      6 N          -6.9920  -19.2142   20.5560 N.am    1  UNL1       -0.2639
      7 C          -8.0941  -18.2260   20.7984 C.2     1  UNL1        0.3040
      8 O          -7.7722  -16.8556   21.3164 O.2     1  UNL1       -0.2526
      9 N          -9.5182  -18.6082   20.5227 N.am    1  UNL1       -0.2884
     10 C          -5.5679  -18.8320   20.8318 C.3     1  UNL1        0.0989
     11 H          -9.7295  -19.5077   20.1827 H       1  UNL1        0.1510
     12 C          -3.6644  -18.6520   21.0828 C.ar    1  UNL1       -0.0212
     13 C          -3.8677  -18.1386   22.4775 C.ar    1  UNL1       -0.0042
     14 C          -3.0664  -16.9705   22.9708 C.ar    1  UNL1       -0.0003
     15 C          -2.0618  -16.3159   22.0695 C.ar    1  UNL1       -0.0000
     16 C          -1.8585  -16.8292   20.6749 C.ar    1  UNL1       -0.0003
     17 C          -2.6599  -17.9974   20.1815 C.ar    1  UNL1       -0.0042
     18 C         -10.6204  -17.6200   20.7650 C.3     1  UNL1        0.0953
     19 C         -11.3838  -17.6496   22.0559 C.3     1  UNL1        0.0437
     20 C         -10.6507  -17.5760   23.3625 C.2     1  UNL1       -0.0365
     21 C         -10.6739  -18.7446   24.3024 C.2     1  UNL1       -0.0065
     22 C          -9.9408  -18.6710   25.6091 C.2     1  UNL1        0.0197
     23 C          -9.1846  -17.4285   25.9757 C.2     1  UNL1        0.0969
     24 N          -8.3740  -17.0670   27.1849 N.2     1  UNL1       -0.2228
     25 C          -7.8499  -15.6749   26.9923 C.2     1  UNL1        0.1986
     26 N          -8.3365  -15.1759   25.6641 N.2     1  UNL1       -0.2265
     27 C          -9.1614  -16.2598   25.0357 C.2     1  UNL1        0.0824
     28 C          -9.8945  -16.3335   23.7292 C.3     1  UNL1        0.0694
@<TRIPOS>BOND
     1     1     2    1
     2     2    12    1
     3    12    13   ar
     4    13    14   ar
     5    14    15   ar
     6    15    16   ar
     7    16    17   ar
     8     2     3    1
     9     3     4    1
    10     4     5    1
    11     5     6    1
    12     6     7   am
    13     7     8    2
    14     7     9   am
    15     9    18    1
    16    18    19    1
    17    19    20    1
    18    20    21    2
    19    21    22    1
    20    22    23    2
    21    23    24    1
    22    24    25    2
    23    25    26    1
    24    26    27    2
    25    27    28    1
    26     6    10    1
    27    10     2    1
    28    17    12   ar
    29    28    20    1
    30    27    23    1
    31     9    11    1
@<TRIPOS>MOLECULE
*****
 28 31 0 0 0
SMALL
GASTEIGER

@<TRIPOS>ATOM
      1 C          -9.8474  -15.3196   25.0247 C.3     1  UNL1        0.0061
      2 C          -9.1976  -16.1989   23.9977 C.3     1  UNL1        0.0373
      3 C         -10.6227  -16.2665   23.5344 C.3     1  UNL1        0.0075
      4 C         -10.9815  -17.0839   22.3289 C.3     1  UNL1        0.0219
      5 C          -9.9151  -17.8336   21.5866 C.3     1  UNL1        0.0950
      6 N          -8.4901  -17.7660   22.0499 N.am    1  UNL1       -0.2639
      7 C          -7.4238  -18.5157   21.3078 C.2     1  UNL1        0.3040
      8 O          -5.9988  -18.4481   21.7710 O.2     1  UNL1       -0.2526
      9 N          -7.7826  -19.3331   20.1022 N.am    1  UNL1       -0.2884
     10 C          -8.1313  -16.9486   23.2555 C.3     1  UNL1        0.0989
     11 H          -8.7179  -19.3775   19.7981 H       1  UNL1        0.1510
     12 C          -7.9982  -15.8259   24.8176 C.ar    1  UNL1       -0.0212
     13 C          -8.0942  -15.7912   26.3142 C.ar    1  UNL1       -0.0042
     14 C          -6.8948  -15.4182   27.1342 C.ar    1  UNL1       -0.0003
     15 C          -5.5995  -15.0800   26.4576 C.ar    1  UNL1       -0.0000
     16 C          -5.5035  -15.1147   24.9611 C.ar    1  UNL1       -0.0003
     17 C          -6.7029  -15.4876   24.1411 C.ar    1  UNL1       -0.0042
     18 C          -6.7163  -20.0829   19.3600 C.3     1  UNL1        0.0953
     19 C          -5.6427  -20.8064   20.1175 C.3     1  UNL1        0.0437
     20 C          -4.3032  -20.1622   20.3196 C.2     1  UNL1       -0.0365
     21 C          -3.6175  -20.2588   21.6501 C.2     1  UNL1       -0.0065
     22 C          -2.2780  -19.6146   21.8521 C.2     1  UNL1        0.0197
     23 C          -1.6243  -18.8736   20.7235 C.2     1  UNL1        0.0969
     24 N          -0.3180  -18.1429   20.6260 N.2     1  UNL1       -0.2228
     25 C          -0.1964  -17.5946   19.2351 C.2     1  UNL1        0.1986
     26 N          -1.4276  -17.9865   18.4730 N.2     1  UNL1       -0.2265
     27 C          -2.3101  -18.7770   19.3930 C.2     1  UNL1        0.0824
     28 C          -3.6495  -19.4212   19.1910 C.3     1  UNL1        0.0694
@<TRIPOS>BOND
     1     1     2    1
     2     2    12    1
     3    12    13   ar
     4    13    14   ar
     5    14    15   ar
     6    15    16   ar
     7    16    17   ar
     8     2     3    1
     9     3     4    1
    10     4     5    1
    11     5     6    1
    12     6     7   am
    13     7     8    2
    14     7     9   am
    15     9    18    1
    16    18    19    1
    17    19    20    1
    18    20    21    2
    19    21    22    1
    20    22    23    2
    21    23    24    1
    22    24    25    2
    23    25    26    1
    24    26    27    2
    25    27    28    1
    26     6    10    1
    27    10     2    1
    28    17    12   ar
    29    28    20    1
    30    27    23    1
    31     9    11    1
@<TRIPOS>MOLECULE
*****
 28 31 0 0 0
SMALL
GASTEIGER

@<TRIPOS>ATOM
      1 C         -12.6094  -18.4997   23.0350 C.3     1  UNL1        0.0061
      2 C         -11.2291  -17.9606   23.2672 C.3     1  UNL1        0.0373
      3 C         -11.4894  -18.5935   24.6020 C.3     1  UNL1        0.0075
      4 C         -10.4454  -18.5325   25.6774 C.3     1  UNL1        0.0219
      5 C          -9.1411  -17.8384   25.4180 C.3     1  UNL1        0.0950
      6 N          -8.8808  -17.2056   24.0833 N.am    1  UNL1       -0.2639
      7 C          -7.5766  -16.5116   23.8237 C.2     1  UNL1        0.3040
      8 O          -7.3163  -15.8787   22.4890 O.2     1  UNL1       -0.2526
      9 N          -6.5326  -16.4505   24.8992 N.am    1  UNL1       -0.2884
     10 C          -9.9248  -17.2666   23.0078 C.3     1  UNL1        0.0989
     11 H          -6.7035  -16.8659   25.7752 H       1  UNL1        0.1510
     12 C         -11.4482  -17.5149   21.8518 C.ar    1  UNL1       -0.0212
     13 C         -12.2253  -16.2628   21.5716 C.ar    1  UNL1       -0.0042
     14 C         -12.4444  -15.8171   20.1562 C.ar    1  UNL1       -0.0003
     15 C         -11.8864  -16.6236   19.0211 C.ar    1  UNL1       -0.0000
     16 C         -11.1094  -17.8756   19.3013 C.ar    1  UNL1       -0.0003
     17 C         -10.8903  -18.3212   20.7167 C.ar    1  UNL1       -0.0042
     18 C          -5.2283  -15.7565   24.6398 C.3     1  UNL1        0.0953
     19 C          -3.9717  -16.5588   24.4753 C.3     1  UNL1        0.0437
     20 C          -3.6573  -17.1980   23.1552 C.2     1  UNL1       -0.0365
     21 C          -4.4606  -18.3723   22.6803 C.2     1  UNL1       -0.0065
     22 C          -4.1463  -19.0115   21.3601 C.2     1  UNL1        0.0197
     23 C          -3.0286  -18.4763   20.5150 C.2     1  UNL1        0.0969
     24 N          -2.4906  -18.8962   19.1793 N.2     1  UNL1       -0.2228
     25 C          -1.3547  -17.9814   18.8287 C.2     1  UNL1        0.1986
     26 N          -1.1907  -16.9961   19.9478 N.2     1  UNL1       -0.2265
     27 C          -2.2253  -17.3019   20.9899 C.2     1  UNL1        0.0824
     28 C          -2.5396  -16.6628   22.3100 C.3     1  UNL1        0.0694
@<TRIPOS>BOND
     1     1     2    1
     2     2    12    1
     3    12    13   ar
     4    13    14   ar
     5    14    15   ar
     6    15    16   ar
     7    16    17   ar
     8     2     3    1
     9     3     4    1
    10     4     5    1
    11     5     6    1
    12     6     7   am
    13     7     8    2
    14     7     9   am
    15     9    18    1
    16    18    19    1
    17    19    20    1
    18    20    21    2
    19    21    22    1
    20    22    23    2
    21    23    24    1
    22    24    25    2
    23    25    26    1
    24    26    27    2
    25    27    28    1
    26     6    10    1
    27    10     2    1
    28    17    12   ar
    29    28    20    1
    30    27    23    1
    31     9    11    1
@<TRIPOS>MOLECULE
*****
 28 31 0 0 0
SMALL
GASTEIGER

@<TRIPOS>ATOM
      1 C         -11.2887  -19.5695   21.3053 C.3     1  UNL1        0.0061
      2 C         -10.6727  -18.7976   22.4343 C.3     1  UNL1        0.0373
      3 C         -10.6999  -20.1692   23.0410 C.3     1  UNL1        0.0075
      4 C         -10.1760  -20.3856   24.4297 C.3     1  UNL1        0.0219
      5 C          -9.6248  -19.2303   25.2118 C.3     1  UNL1        0.0950
      6 N          -9.5976  -17.8588   24.6052 N.am    1  UNL1       -0.2639
      7 C          -9.0465  -16.7035   25.3872 C.2     1  UNL1        0.3040
      8 O          -9.0193  -15.3320   24.7806 O.2     1  UNL1       -0.2526
      9 N          -8.5225  -16.9199   26.7761 N.am    1  UNL1       -0.2884
     10 C         -10.1216  -17.6424   23.2164 C.3     1  UNL1        0.0989
     11 H          -8.5404  -17.8201   27.1742 H       1  UNL1        0.1510
     12 C         -10.8595  -17.6941   21.4355 C.ar    1  UNL1       -0.0212
     13 C         -10.0823  -16.4185   21.5732 C.ar    1  UNL1       -0.0042
     14 C         -10.2690  -15.3150   20.5745 C.ar    1  UNL1       -0.0003
     15 C         -11.2329  -15.4872   19.4381 C.ar    1  UNL1       -0.0000
     16 C         -12.0100  -16.7627   19.3003 C.ar    1  UNL1       -0.0003
     17 C         -11.8233  -17.8662   20.2991 C.ar    1  UNL1       -0.0042
     18 C          -7.9714  -15.7647   27.5582 C.3     1  UNL1        0.0953
     19 C          -6.5368  -15.3605   27.3887 C.3     1  UNL1        0.0437
     20 C          -5.8200  -15.6595   26.1054 C.2     1  UNL1       -0.0365
     21 C          -6.0091  -14.7666   24.9151 C.2     1  UNL1       -0.0065
     22 C          -5.2923  -15.0655   23.6318 C.2     1  UNL1        0.0197
     23 C          -4.3865  -16.2575   23.5388 C.2     1  UNL1        0.0969
     24 N          -3.5540  -16.8002   22.4153 N.2     1  UNL1       -0.2228
     25 C          -2.8504  -18.0286   22.9112 C.2     1  UNL1        0.1986
     26 N          -3.2480  -18.2451   24.3413 N.2     1  UNL1       -0.2265
     27 C          -4.1974  -17.1505   24.7291 C.2     1  UNL1        0.0824
     28 C          -4.9142  -16.8515   26.0124 C.3     1  UNL1        0.0694
@<TRIPOS>BOND
     1     1     2    1
     2     2    12    1
     3    12    13   ar
     4    13    14   ar
     5    14    15   ar
     6    15    16   ar
     7    16    17   ar
     8     2     3    1
     9     3     4    1
    10     4     5    1
    11     5     6    1
    12     6     7   am
    13     7     8    2
    14     7     9   am
    15     9    18    1
    16    18    19    1
    17    19    20    1
    18    20    21    2
    19    21    22    1
    20    22    23    2
    21    23    24    1
    22    24    25    2
    23    25    26    1
    24    26    27    2
    25    27    28    1
    26     6    10    1
    27    10     2    1
    28    17    12   ar
    29    28    20    1
    30    27    23    1
    31     9    11    1
@<TRIPOS>MOLECULE
*****
 28 31 0 0 0
SMALL
GASTEIGER

@<TRIPOS>ATOM
      1 C          -3.0203  -19.8313   19.5311 C.3     1  UNL1        0.0061
      2 C          -4.1928  -19.6532   20.4495 C.3     1  UNL1        0.0373
      3 C          -4.6112  -20.9024   19.7323 C.3     1  UNL1        0.0075
      4 C          -5.9154  -21.5612   20.0717 C.3     1  UNL1        0.0219
      5 C          -6.8012  -20.9706   21.1284 C.3     1  UNL1        0.0950
      6 N          -6.3829  -19.7215   21.8456 N.am    1  UNL1       -0.2639
      7 C          -7.2687  -19.1309   22.9023 C.2     1  UNL1        0.3040
      8 O          -6.8503  -17.8817   23.6195 O.2     1  UNL1       -0.2526
      9 N          -8.5729  -19.7896   23.2418 N.am    1  UNL1       -0.2884
     10 C          -5.0787  -19.0627   21.5062 C.3     1  UNL1        0.0989
     11 H          -8.8474  -20.6096   22.7711 H       1  UNL1        0.1510
     12 C          -3.3673  -18.4658   20.8477 C.ar    1  UNL1       -0.0212
     13 C          -3.4984  -17.8897   22.2266 C.ar    1  UNL1       -0.0042
     14 C          -2.6728  -16.7024   22.6248 C.ar    1  UNL1       -0.0003
     15 C          -1.7162  -16.0912   21.6443 C.ar    1  UNL1       -0.0000
     16 C          -1.5851  -16.6672   20.2656 C.ar    1  UNL1       -0.0003
     17 C          -2.4107  -17.8545   19.8673 C.ar    1  UNL1       -0.0042
     18 C          -9.4587  -19.1991   24.2985 C.3     1  UNL1        0.0953
     19 C          -9.9367  -17.7831   24.1711 C.3     1  UNL1        0.0437
     20 C         -10.6296  -17.3353   22.9182 C.2     1  UNL1       -0.0365
     21 C         -11.9854  -17.8778   22.5762 C.2     1  UNL1       -0.0065
     22 C         -12.6783  -17.4300   21.3233 C.2     1  UNL1        0.0197
     23 C         -12.0151  -16.4396   20.4127 C.2     1  UNL1        0.0969
     24 N         -12.4504  -15.8176   19.1190 N.2     1  UNL1       -0.2228
     25 C         -11.3635  -14.8906   18.6616 C.2     1  UNL1        0.1986
     26 N         -10.2564  -14.9397   19.6726 N.2     1  UNL1       -0.2265
     27 C         -10.6591  -15.8971   20.7548 C.2     1  UNL1        0.0824
     28 C          -9.9664  -16.3449   22.0076 C.3     1  UNL1        0.0694
@<TRIPOS>BOND
     1     1     2    1
     2     2    12    1
     3    12    13   ar
     4    13    14   ar
     5    14    15   ar
     6    15    16   ar
     7    16    17   ar
     8     2     3    1
     9     3     4    1
    10     4     5    1
    11     5     6    1
    12     6     7   am
    13     7     8    2
    14     7     9   am
    15     9    18    1
    16    18    19    1
    17    19    20    1
    18    20    21    2
    19    21    22    1
    20    22    23    2
    21    23    24    1
    22    24    25    2
    23    25    26    1
    24    26    27    2
    25    27    28    1
    26     6    10    1
    27    10     2    1
    28    17    12   ar
    29    28    20    1
    30    27    23    1
    31     9    11    1
@<TRIPOS>MOLECULE
*****
 28 31 0 0 0
SMALL
GASTEIGER

@<TRIPOS>ATOM
      1 C          -6.6942    4.4206   22.9934 C.3     1  UNL1        0.0061
      2 C          -5.3477    4.0746   22.4300 C.3     1  UNL1        0.0373
      3 C          -6.1597    4.0975   21.1689 C.3     1  UNL1        0.0075
      4 C          -5.5056    3.8081   19.8504 C.3     1  UNL1        0.0219
      5 C          -4.0395    3.4959   19.7930 C.3     1  UNL1        0.0950
      6 N          -3.2276    3.4731   21.0540 N.am    1  UNL1       -0.2639
      7 C          -1.7616    3.1609   20.9967 C.2     1  UNL1        0.3040
      8 O          -0.9497    3.1381   22.2576 O.2     1  UNL1       -0.2526
      9 N          -1.1075    2.8715   19.6781 N.am    1  UNL1       -0.2884
     10 C          -3.8817    3.7624   22.3726 C.3     1  UNL1        0.0989
     11 H          -1.6404    2.8865   18.8504 H       1  UNL1        0.1510
     12 C          -5.0034    4.1720   23.8867 C.ar    1  UNL1       -0.0212
     13 C          -5.8791    4.9626   24.8131 C.ar    1  UNL1       -0.0042
     14 C          -5.5348    5.0599   26.2698 C.ar    1  UNL1       -0.0003
     15 C          -4.3149    4.3666   26.8001 C.ar    1  UNL1       -0.0000
     16 C          -3.4392    3.5761   25.8738 C.ar    1  UNL1       -0.0003
     17 C          -3.7835    3.4787   24.4171 C.ar    1  UNL1       -0.0042
     18 C           0.3585    2.5593   19.6206 C.3     1  UNL1        0.0953
     19 C           0.9058    1.7330   18.4947 C.3     1  UNL1        0.0437
     20 C           1.7785    0.5489   18.7888 C.2     1  UNL1       -0.0365
     21 C           1.5488   -0.2624   20.0293 C.2     1  UNL1       -0.0065
     22 C           2.4216   -1.4465   20.3234 C.2     1  UNL1        0.0197
     23 C           3.5239   -1.8191   19.3769 C.2     1  UNL1        0.0969
     24 N           4.5375   -2.9246   19.4021 N.2     1  UNL1       -0.2228
     25 C           5.3935   -2.7965   18.1770 C.2     1  UNL1        0.1986
     26 N           4.9091   -1.6118   17.3948 N.2     1  UNL1       -0.2265
     27 C           3.7536   -1.0077   18.1364 C.2     1  UNL1        0.0824
     28 C           2.8809    0.1763   17.8423 C.3     1  UNL1        0.0694
@<TRIPOS>BOND
     1     1     2    1
     2     2    12    1
     3    12    13   ar
     4    13    14   ar
     5    14    15   ar
     6    15    16   ar
     7    16    17   ar
     8     2     3    1
     9     3     4    1
    10     4     5    1
    11     5     6    1
    12     6     7   am
    13     7     8    2
    14     7     9   am
    15     9    18    1
    16    18    19    1
    17    19    20    1
    18    20    21    2
    19    21    22    1
    20    22    23    2
    21    23    24    1
    22    24    25    2
    23    25    26    1
    24    26    27    2
    25    27    28    1
    26     6    10    1
    27    10     2    1
    28    17    12   ar
    29    28    20    1
    30    27    23    1
    31     9    11    1
@<TRIPOS>MOLECULE
*****
 28 31 0 0 0
SMALL
GASTEIGER

@<TRIPOS>ATOM
      1 C           3.8453   -2.5250   18.8995 C.3     1  UNL1        0.0061
      2 C           3.7959   -2.2127   20.3657 C.3     1  UNL1        0.0373
      3 C           4.6772   -3.4263   20.3876 C.3     1  UNL1        0.0075
      4 C           5.2090   -3.9438   21.6912 C.3     1  UNL1        0.0219
      5 C           4.8595   -3.2476   22.9731 C.3     1  UNL1        0.0950
      6 N           3.9783   -2.0340   22.9513 N.am    1  UNL1       -0.2639
      7 C           3.6287   -1.3378   24.2331 C.2     1  UNL1        0.3040
      8 O           2.7475   -0.1242   24.2114 O.2     1  UNL1       -0.2526
      9 N           4.1605   -1.8553   25.5368 N.am    1  UNL1       -0.2884
     10 C           3.4464   -1.5165   21.6476 C.3     1  UNL1        0.0989
     11 H           4.7389   -2.6518   25.5511 H       1  UNL1        0.1510
     12 C           2.9318   -1.1075   19.8347 C.ar    1  UNL1       -0.0212
     13 C           1.5688   -0.8757   20.4167 C.ar    1  UNL1       -0.0042
     14 C           0.7047    0.2294   19.8857 C.ar    1  UNL1       -0.0003
     15 C           1.2036    1.1027   18.7728 C.ar    1  UNL1       -0.0000
     16 C           2.5665    0.8709   18.1908 C.ar    1  UNL1       -0.0003
     17 C           3.4306   -0.2342   18.7218 C.ar    1  UNL1       -0.0042
     18 C           3.8110   -1.1591   26.8187 C.3     1  UNL1        0.0953
     19 C           4.8981   -0.7215   27.7550 C.3     1  UNL1        0.0437
     20 C           5.4501   -1.6833   28.7651 C.2     1  UNL1       -0.0365
     21 C           5.4410   -1.3279   30.2223 C.2     1  UNL1       -0.0065
     22 C           5.9930   -2.2897   31.2324 C.2     1  UNL1        0.0197
     23 C           6.5540   -3.6070   30.7852 C.2     1  UNL1        0.0969
     24 N           7.1624   -4.7486   31.5446 N.2     1  UNL1       -0.2228
     25 C           7.5474   -5.8095   30.5566 C.2     1  UNL1        0.1986
     26 N           7.1771   -5.3237   29.1867 N.2     1  UNL1       -0.2265
     27 C           6.5631   -3.9624   29.3279 C.2     1  UNL1        0.0824
     28 C           6.0111   -3.0006   28.3179 C.3     1  UNL1        0.0694
@<TRIPOS>BOND
     1     1     2    1
     2     2    12    1
     3    12    13   ar
     4    13    14   ar
     5    14    15   ar
     6    15    16   ar
     7    16    17   ar
     8     2     3    1
     9     3     4    1
    10     4     5    1
    11     5     6    1
    12     6     7   am
    13     7     8    2
    14     7     9   am
    15     9    18    1
    16    18    19    1
    17    19    20    1
    18    20    21    2
    19    21    22    1
    20    22    23    2
    21    23    24    1
    22    24    25    2
    23    25    26    1
    24    26    27    2
    25    27    28    1
    26     6    10    1
    27    10     2    1
    28    17    12   ar
    29    28    20    1
    30    27    23    1
    31     9    11    1
@<TRIPOS>MOLECULE
*****
 28 31 0 0 0
SMALL
GASTEIGER

@<TRIPOS>ATOM
      1 C          -9.5823   -3.8159   18.8166 C.3     1  UNL1        0.0061
      2 C         -10.7165   -4.7935   18.7275 C.3     1  UNL1        0.0373
      3 C          -9.5700   -5.7416   18.9193 C.3     1  UNL1        0.0075
      4 C          -9.8190   -7.2200   18.9662 C.3     1  UNL1        0.0219
      5 C         -11.2146   -7.7504   18.8212 C.3     1  UNL1        0.0950
      6 N         -12.3611   -6.8025   18.6294 N.am    1  UNL1       -0.2639
      7 C         -13.7567   -7.3328   18.4845 C.2     1  UNL1        0.3040
      8 O         -14.9031   -6.3849   18.2927 O.2     1  UNL1       -0.2526
      9 N         -14.0057   -8.8113   18.5314 N.am    1  UNL1       -0.2884
     10 C         -12.1120   -5.3240   18.5826 C.3     1  UNL1        0.0989
     11 H         -13.2532   -9.4335   18.6573 H       1  UNL1        0.1510
     12 C         -11.4691   -3.5060   18.5666 C.ar    1  UNL1       -0.0212
     13 C         -12.6980   -3.2481   19.3872 C.ar    1  UNL1       -0.0042
     14 C         -13.4506   -1.9606   19.2264 C.ar    1  UNL1       -0.0003
     15 C         -12.9743   -0.9311   18.2449 C.ar    1  UNL1       -0.0000
     16 C         -11.7455   -1.1889   17.4243 C.ar    1  UNL1       -0.0003
     17 C         -10.9929   -2.4764   17.5852 C.ar    1  UNL1       -0.0042
     18 C         -15.4013   -9.3418   18.3864 C.3     1  UNL1        0.0953
     19 C         -16.3379   -9.3185   19.5578 C.3     1  UNL1        0.0437
     20 C         -17.4287   -8.2910   19.6256 C.2     1  UNL1       -0.0365
     21 C         -18.8622   -8.7236   19.7133 C.2     1  UNL1       -0.0065
     22 C         -19.9530   -7.6961   19.7811 C.2     1  UNL1        0.0197
     23 C         -19.6101   -6.2360   19.7611 C.2     1  UNL1        0.0969
     24 N         -20.4637   -5.0037   19.8144 N.2     1  UNL1       -0.2228
     25 C         -19.5577   -3.8095   19.7596 C.2     1  UNL1        0.1986
     26 N         -18.1441   -4.3037   19.6724 N.2     1  UNL1       -0.2265
     27 C         -18.1765   -5.8033   19.6733 C.2     1  UNL1        0.0824
     28 C         -17.0858   -6.8309   19.6056 C.3     1  UNL1        0.0694
@<TRIPOS>BOND
     1     1     2    1
     2     2    12    1
     3    12    13   ar
     4    13    14   ar
     5    14    15   ar
     6    15    16   ar
     7    16    17   ar
     8     2     3    1
     9     3     4    1
    10     4     5    1
    11     5     6    1
    12     6     7   am
    13     7     8    2
    14     7     9   am
    15     9    18    1
    16    18    19    1
    17    19    20    1
    18    20    21    2
    19    21    22    1
    20    22    23    2
    21    23    24    1
    22    24    25    2
    23    25    26    1
    24    26    27    2
    25    27    28    1
    26     6    10    1
    27    10     2    1
    28    17    12   ar
    29    28    20    1
    30    27    23    1
    31     9    11    1
@<TRIPOS>MOLECULE
*****
 28 31 0 0 0
SMALL
GASTEIGER

@<TRIPOS>ATOM
      1 C           3.5493   -0.6561   17.2399 C.3     1  UNL1        0.0061
      2 C           3.9954   -1.2194   18.5566 C.3     1  UNL1        0.0373
      3 C           5.0697   -1.7644   17.6628 C.3     1  UNL1        0.0075
      4 C           6.1632   -2.6154   18.2372 C.3     1  UNL1        0.0219
      5 C           6.1824   -2.9215   19.7056 C.3     1  UNL1        0.0950
      6 N           5.1081   -2.3766   20.5994 N.am    1  UNL1       -0.2639
      7 C           5.1272   -2.6826   22.0677 C.2     1  UNL1        0.3040
      8 O           4.0530   -2.1377   22.9615 O.2     1  UNL1       -0.2526
      9 N           6.2208   -3.5337   22.6422 N.am    1  UNL1       -0.2884
     10 C           4.0146   -1.5255   20.0249 C.3     1  UNL1        0.0989
     11 H           6.9258   -3.8914   22.0556 H       1  UNL1        0.1510
     12 C           2.7662   -0.4788   18.9931 C.ar    1  UNL1       -0.0212
     13 C           1.9107   -1.0295   20.0954 C.ar    1  UNL1       -0.0042
     14 C           0.6815   -0.2889   20.5320 C.ar    1  UNL1       -0.0003
     15 C           0.3078    1.0023   19.8662 C.ar    1  UNL1       -0.0000
     16 C           1.1632    1.5529   18.7639 C.ar    1  UNL1       -0.0003
     17 C           2.3924    0.8123   18.3274 C.ar    1  UNL1       -0.0042
     18 C           6.2399   -3.8398   24.1105 C.3     1  UNL1        0.0953
     19 C           7.1127   -4.9410   24.6357 C.3     1  UNL1        0.0437
     20 C           7.1894   -5.1978   26.1116 C.2     1  UNL1       -0.0365
     21 C           7.6965   -6.5153   26.6183 C.2     1  UNL1       -0.0065
     22 C           7.7732   -6.7721   28.0942 C.2     1  UNL1        0.0197
     23 C           7.3429   -5.7113   29.0634 C.2     1  UNL1        0.0969
     24 N           7.3054   -5.6769   30.5625 N.2     1  UNL1       -0.2228
     25 C           6.7751   -4.3381   30.9823 C.2     1  UNL1        0.1986
     26 N           6.4849   -3.5450   29.7427 N.2     1  UNL1       -0.2265
     27 C           6.8358   -4.3937   28.5567 C.2     1  UNL1        0.0824
     28 C           6.7590   -4.1369   27.0808 C.3     1  UNL1        0.0694
@<TRIPOS>BOND
     1     1     2    1
     2     2    12    1
     3    12    13   ar
     4    13    14   ar
     5    14    15   ar
     6    15    16   ar
     7    16    17   ar
     8     2     3    1
     9     3     4    1
    10     4     5    1
    11     5     6    1
    12     6     7   am
    13     7     8    2
    14     7     9   am
    15     9    18    1
    16    18    19    1
    17    19    20    1
    18    20    21    2
    19    21    22    1
    20    22    23    2
    21    23    24    1
    22    24    25    2
    23    25    26    1
    24    26    27    2
    25    27    28    1
    26     6    10    1
    27    10     2    1
    28    17    12   ar
    29    28    20    1
    30    27    23    1
    31     9    11    1
