@<TRIPOS>MOLECULE
*****
 30 34 0 0 0
SMALL
GASTEIGER

@<TRIPOS>ATOM
      1 C          -6.2743  -17.5129   23.0722 C.ar    1  UNL1        0.0866
      2 C          -4.8772  -17.0981   23.4274 C.ar    1  UNL1        0.1361
      3 N          -4.6317  -16.2525   24.6417 N.ar    1  UNL1       -0.2305
      4 C          -5.7834  -15.8217   25.5010 C.ar    1  UNL1        0.0827
      5 C          -5.5379  -14.9762   26.7154 C.ar    1  UNL1        0.0200
      6 C          -6.6895  -14.5455   27.5746 C.ar    1  UNL1        0.0129
      7 C          -8.0865  -14.9603   27.2194 C.ar    1  UNL1        0.0578
      8 CL         -9.2381  -14.5295   28.0787 Cl      1  UNL1       -0.0822
      9 C          -8.3320  -15.8058   26.0050 C.ar    1  UNL1        0.0129
     10 C          -7.1804  -16.2365   25.1458 C.ar    1  UNL1        0.0188
     11 C          -7.4259  -17.0821   23.9314 C.ar    1  UNL1        0.0087
     12 S          -6.4783  -21.6388   19.7834 S.2     1  UNL1        0.0107
     13 C          -6.6135  -20.2550   20.3461 C.ar    1  UNL1        0.2642
     14 N          -7.1813  -19.0643   19.6318 N.ar    1  UNL1       -0.2368
     15 N          -7.1234  -17.8923   20.5661 N.ar    1  UNL1       -0.1317
     16 C          -6.5197  -18.3584   21.8577 C.ar    1  UNL1        0.2509
     17 O          -6.2046  -19.8186   21.7218 O.2     1  UNL1       -0.4118
     18 H          -7.5307  -19.0540   18.7115 H       1  UNL1        0.1927
     19 N          -3.7256  -17.5289   22.5681 N.pl3   1  UNL1       -0.2931
     20 C          -3.4227  -18.9878   22.3962 C.3     1  UNL1        0.0922
     21 C          -2.2711  -19.4185   21.5370 C.3     1  UNL1        0.0215
     22 C          -1.4225  -18.3903   20.8496 C.3     1  UNL1        0.0035
     23 C          -1.7254  -16.9313   21.0215 C.3     1  UNL1        0.0215
     24 C          -2.8770  -16.5006   21.8807 C.3     1  UNL1        0.0922
     25 C          -8.8229  -17.4969   23.5762 C.ar    1  UNL1        0.0003
     26 C          -9.3513  -18.8234   24.0360 C.ar    1  UNL1        0.0000
     27 C         -10.7483  -19.2382   23.6808 C.ar    1  UNL1        0.0000
     28 C         -11.6171  -18.3265   22.8658 C.ar    1  UNL1        0.0000
     29 C         -11.0887  -17.0000   22.4061 C.ar    1  UNL1        0.0000
     30 C          -9.6917  -16.5853   22.7613 C.ar    1  UNL1        0.0000
@<TRIPOS>BOND
     1    12    13    2
     2    13    14   ar
     3    14    15   ar
     4    15    16   ar
     5    16     1    1
     6     1     2   ar
     7     2    19    1
     8    19    20    1
     9    20    21    1
    10    21    22    1
    11    22    23    1
    12    23    24    1
    13     2     3   ar
    14     3     4   ar
    15     4     5   ar
    16     5     6   ar
    17     6     7   ar
    18     7     8    1
    19     7     9   ar
    20     9    10   ar
    21    10    11   ar
    22    11    25    1
    23    25    26   ar
    24    26    27   ar
    25    27    28   ar
    26    28    29   ar
    27    29    30   ar
    28    16    17   ar
    29    17    13   ar
    30    11     1   ar
    31    30    25   ar
    32    24    19    1
    33    10     4   ar
    34    14    18    1
@<TRIPOS>MOLECULE
*****
 30 34 0 0 0
SMALL
GASTEIGER

@<TRIPOS>ATOM
      1 C         -14.5220   -5.1369   18.2821 C.ar    1  UNL1        0.0866
      2 C         -13.4108   -6.1226   18.0734 C.ar    1  UNL1        0.1361
      3 N         -13.6985   -7.5944   18.1026 N.ar    1  UNL1       -0.2305
      4 C         -15.0975   -8.0806   18.3404 C.ar    1  UNL1        0.0827
      5 C         -15.3852   -9.5524   18.3696 C.ar    1  UNL1        0.0200
      6 C         -16.7841  -10.0386   18.6075 C.ar    1  UNL1        0.0129
      7 C         -17.8953   -9.0529   18.8162 C.ar    1  UNL1        0.0578
      8 CL        -19.2943   -9.5391   19.0541 Cl      1  UNL1       -0.0822
      9 C         -17.6076   -7.5810   18.7870 C.ar    1  UNL1        0.0129
     10 C         -16.2087   -7.0949   18.5492 C.ar    1  UNL1        0.0188
     11 C         -15.9209   -5.6230   18.5200 C.ar    1  UNL1        0.0087
     12 S         -14.0668   -0.1406   16.6354 S.2     1  UNL1        0.0107
     13 C         -14.0250   -1.3685   17.4960 C.ar    1  UNL1        0.2642
     14 N         -13.5579   -1.4316   18.9201 N.ar    1  UNL1       -0.2368
     15 N         -13.6872   -2.8509   19.3879 N.ar    1  UNL1       -0.1317
     16 C         -14.2342   -3.6650   18.2530 C.ar    1  UNL1        0.2509
     17 O         -14.4430   -2.7489   17.0837 O.2     1  UNL1       -0.4118
     18 H         -13.2249   -0.6744   19.4540 H       1  UNL1        0.1927
     19 N         -12.0118   -5.6364   17.8355 N.pl3   1  UNL1       -0.2931
     20 C         -11.0508   -5.5267   18.9820 C.3     1  UNL1        0.0922
     21 C          -9.6519   -5.0405   18.7441 C.3     1  UNL1        0.0215
     22 C          -9.2140   -4.6640   17.3597 C.3     1  UNL1        0.0035
     23 C         -10.1750   -4.7737   16.2133 C.3     1  UNL1        0.0215
     24 C         -11.5739   -5.2598   16.4512 C.3     1  UNL1        0.0922
     25 C         -17.0321   -4.6373   18.7287 C.ar    1  UNL1        0.0003
     26 C         -17.3339   -4.1280   20.1070 C.ar    1  UNL1        0.0000
     27 C         -18.4451   -3.1423   20.3158 C.ar    1  UNL1        0.0000
     28 C         -19.2546   -2.6659   19.1462 C.ar    1  UNL1        0.0000
     29 C         -18.9529   -3.1752   17.7680 C.ar    1  UNL1        0.0000
     30 C         -17.8416   -4.1609   17.5593 C.ar    1  UNL1        0.0000
@<TRIPOS>BOND
     1    12    13    2
     2    13    14   ar
     3    14    15   ar
     4    15    16   ar
     5    16     1    1
     6     1     2   ar
     7     2    19    1
     8    19    20    1
     9    20    21    1
    10    21    22    1
    11    22    23    1
    12    23    24    1
    13     2     3   ar
    14     3     4   ar
    15     4     5   ar
    16     5     6   ar
    17     6     7   ar
    18     7     8    1
    19     7     9   ar
    20     9    10   ar
    21    10    11   ar
    22    11    25    1
    23    25    26   ar
    24    26    27   ar
    25    27    28   ar
    26    28    29   ar
    27    29    30   ar
    28    16    17   ar
    29    17    13   ar
    30    11     1   ar
    31    30    25   ar
    32    24    19    1
    33    10     4   ar
    34    14    18    1
@<TRIPOS>MOLECULE
*****
 30 34 0 0 0
SMALL
GASTEIGER

@<TRIPOS>ATOM
      1 C         -14.8837   -3.9467   18.4963 C.ar    1  UNL1        0.0866
      2 C         -14.1690   -2.6356   18.6387 C.ar    1  UNL1        0.1361
      3 N         -12.6779   -2.6077   18.7990 N.ar    1  UNL1       -0.2305
      4 C         -11.9014   -3.8910   18.8169 C.ar    1  UNL1        0.0827
      5 C         -10.4103   -3.8632   18.9771 C.ar    1  UNL1        0.0200
      6 C          -9.6338   -5.1464   18.9950 C.ar    1  UNL1        0.0129
      7 C         -10.3485   -6.4575   18.8525 C.ar    1  UNL1        0.0578
      8 CL         -9.5720   -7.7408   18.8704 Cl      1  UNL1       -0.0822
      9 C         -11.8396   -6.4853   18.6922 C.ar    1  UNL1        0.0129
     10 C         -12.6161   -5.2021   18.6744 C.ar    1  UNL1        0.0188
     11 C         -14.1073   -5.2299   18.5141 C.ar    1  UNL1        0.0087
     12 S         -19.7018   -4.0235   16.3372 S.2     1  UNL1        0.0107
     13 C         -18.5895   -4.0098   17.3435 C.ar    1  UNL1        0.2642
     14 N         -18.7496   -4.0247   18.8349 N.ar    1  UNL1       -0.2368
     15 N         -17.3809   -4.0028   19.4483 N.ar    1  UNL1       -0.1317
     16 C         -16.3749   -3.9744   18.3360 C.ar    1  UNL1        0.2509
     17 O         -17.1218   -3.9787   17.0351 O.2     1  UNL1       -0.4118
     18 H         -19.6031   -4.0452   19.3252 H       1  UNL1        0.1927
     19 N         -14.9456   -1.3523   18.6209 N.pl3   1  UNL1       -0.2931
     20 C         -15.5420   -0.8189   19.8896 C.3     1  UNL1        0.0922
     21 C         -16.3185    0.4644   19.8717 C.3     1  UNL1        0.0215
     22 C         -16.4985    1.2142   18.5851 C.3     1  UNL1        0.0035
     23 C         -15.9021    0.6808   17.3164 C.3     1  UNL1        0.0215
     24 C         -15.1256   -0.6025   17.3343 C.3     1  UNL1        0.0922
     25 C         -14.8219   -6.5410   18.3717 C.ar    1  UNL1        0.0003
     26 C         -14.9265   -7.1959   17.0262 C.ar    1  UNL1        0.0000
     27 C         -15.6411   -8.5070   16.8837 C.ar    1  UNL1        0.0000
     28 C         -16.2513   -9.1632   18.0868 C.ar    1  UNL1        0.0000
     29 C         -16.1467   -8.5083   19.4321 C.ar    1  UNL1        0.0000
     30 C         -15.4321   -7.1972   19.5746 C.ar    1  UNL1        0.0000
@<TRIPOS>BOND
     1    12    13    2
     2    13    14   ar
     3    14    15   ar
     4    15    16   ar
     5    16     1    1
     6     1     2   ar
     7     2    19    1
     8    19    20    1
     9    20    21    1
    10    21    22    1
    11    22    23    1
    12    23    24    1
    13     2     3   ar
    14     3     4   ar
    15     4     5   ar
    16     5     6   ar
    17     6     7   ar
    18     7     8    1
    19     7     9   ar
    20     9    10   ar
    21    10    11   ar
    22    11    25    1
    23    25    26   ar
    24    26    27   ar
    25    27    28   ar
    26    28    29   ar
    27    29    30   ar
    28    16    17   ar
    29    17    13   ar
    30    11     1   ar
    31    30    25   ar
    32    24    19    1
    33    10     4   ar
    34    14    18    1
@<TRIPOS>MOLECULE
*****
 30 34 0 0 0
SMALL
GASTEIGER

@<TRIPOS>ATOM
      1 C           4.1690    1.0082   34.3779 C.ar    1  UNL1        0.0866
      2 C           3.1568    2.0385   34.7829 C.ar    1  UNL1        0.1361
      3 N           2.0304    2.3880   33.8562 N.ar    1  UNL1       -0.2305
      4 C           1.9160    1.7072   32.5244 C.ar    1  UNL1        0.0827
      5 C           0.7896    2.0568   31.5976 C.ar    1  UNL1        0.0200
      6 C           0.6753    1.3760   30.2659 C.ar    1  UNL1        0.0129
      7 C           1.6875    0.3457   29.8610 C.ar    1  UNL1        0.0578
      8 CL          1.5731   -0.3350   28.5292 Cl      1  UNL1       -0.0822
      9 C           2.8139   -0.0038   30.7877 C.ar    1  UNL1        0.0129
     10 C           2.9282    0.6770   32.1194 C.ar    1  UNL1        0.0188
     11 C           4.0547    0.3274   33.0462 C.ar    1  UNL1        0.0087
     12 S           8.8251    1.0645   36.8676 S.2     1  UNL1        0.0107
     13 C           7.4357    0.6846   36.4491 C.ar    1  UNL1        0.2642
     14 N           6.6223   -0.4428   37.0126 N.ar    1  UNL1       -0.2368
     15 N           5.2996   -0.4588   36.3053 N.ar    1  UNL1       -0.1317
     16 C           5.2955    0.6587   35.3047 C.ar    1  UNL1        0.2509
     17 O           6.6156    1.3653   35.3935 O.2     1  UNL1       -0.4118
     18 H           6.9067   -1.0633   37.7221 H       1  UNL1        0.1927
     19 N           3.2712    2.7192   36.1147 N.pl3   1  UNL1       -0.2931
     20 C           2.6674    2.0878   37.3340 C.3     1  UNL1        0.0922
     21 C           2.7818    2.7686   38.6657 C.3     1  UNL1        0.0215
     22 C           3.4999    4.0807   38.7780 C.3     1  UNL1        0.0035
     23 C           4.1036    4.7121   37.5587 C.3     1  UNL1        0.0215
     24 C           3.9892    4.0314   36.2270 C.3     1  UNL1        0.0922
     25 C           5.0669   -0.7029   32.6412 C.ar    1  UNL1        0.0003
     26 C           6.3162   -0.2853   31.9236 C.ar    1  UNL1        0.0000
     27 C           7.3284   -1.3156   31.5186 C.ar    1  UNL1        0.0000
     28 C           7.0913   -2.7634   31.8313 C.ar    1  UNL1        0.0000
     29 C           5.8420   -3.1809   32.5488 C.ar    1  UNL1        0.0000
     30 C           4.8298   -2.1506   32.9538 C.ar    1  UNL1        0.0000
@<TRIPOS>BOND
     1    12    13    2
     2    13    14   ar
     3    14    15   ar
     4    15    16   ar
     5    16     1    1
     6     1     2   ar
     7     2    19    1
     8    19    20    1
     9    20    21    1
    10    21    22    1
    11    22    23    1
    12    23    24    1
    13     2     3   ar
    14     3     4   ar
    15     4     5   ar
    16     5     6   ar
    17     6     7   ar
    18     7     8    1
    19     7     9   ar
    20     9    10   ar
    21    10    11   ar
    22    11    25    1
    23    25    26   ar
    24    26    27   ar
    25    27    28   ar
    26    28    29   ar
    27    29    30   ar
    28    16    17   ar
    29    17    13   ar
    30    11     1   ar
    31    30    25   ar
    32    24    19    1
    33    10     4   ar
    34    14    18    1
@<TRIPOS>MOLECULE
*****
 30 34 0 0 0
SMALL
GASTEIGER

@<TRIPOS>ATOM
      1 C         -15.4266   -4.7691   18.2129 C.ar    1  UNL1        0.0866
      2 C         -16.8309   -5.2885   18.3034 C.ar    1  UNL1        0.1361
      3 N         -17.9885   -4.3372   18.2322 N.ar    1  UNL1       -0.2305
      4 C         -17.7418   -2.8665   18.0705 C.ar    1  UNL1        0.0827
      5 C         -18.8993   -1.9152   17.9992 C.ar    1  UNL1        0.0200
      6 C         -18.6526   -0.4445   17.8375 C.ar    1  UNL1        0.0129
      7 C         -17.2483    0.0749   17.7471 C.ar    1  UNL1        0.0578
      8 CL        -17.0016    1.5457   17.5854 Cl      1  UNL1       -0.0822
      9 C         -16.0907   -0.8764   17.8183 C.ar    1  UNL1        0.0129
     10 C         -16.3375   -2.3470   17.9800 C.ar    1  UNL1        0.0188
     11 C         -15.1799   -3.2984   18.0512 C.ar    1  UNL1        0.0087
     12 S         -11.3907   -7.8800   16.8292 S.2     1  UNL1        0.0107
     13 C         -12.4139   -7.1504   17.6481 C.ar    1  UNL1        0.2642
     14 N         -12.5615   -7.2183   19.1393 N.ar    1  UNL1       -0.2368
     15 N         -13.7080   -6.3346   19.5324 N.ar    1  UNL1       -0.1317
     16 C         -14.2690   -5.7204   18.2842 C.ar    1  UNL1        0.2509
     17 O         -13.4693   -6.2245   17.1196 O.2     1  UNL1       -0.4118
     18 H         -12.0038   -7.7497   19.7524 H       1  UNL1        0.1927
     19 N         -17.0776   -6.7592   18.4651 N.pl3   1  UNL1       -0.2931
     20 C         -17.1771   -7.3566   19.8374 C.3     1  UNL1        0.0922
     21 C         -17.4238   -8.8273   19.9990 C.3     1  UNL1        0.0215
     22 C         -17.5710   -9.7006   18.7883 C.3     1  UNL1        0.0035
     23 C         -17.4714   -9.1033   17.4161 C.3     1  UNL1        0.0215
     24 C         -17.2248   -7.6326   17.2544 C.3     1  UNL1        0.0922
     25 C         -13.7756   -2.7790   17.9608 C.ar    1  UNL1        0.0003
     26 C         -13.0914   -2.6950   16.6285 C.ar    1  UNL1        0.0000
     27 C         -11.6871   -2.1756   16.5381 C.ar    1  UNL1        0.0000
     28 C         -10.9670   -1.7401   17.7799 C.ar    1  UNL1        0.0000
     29 C         -11.6513   -1.8241   19.1120 C.ar    1  UNL1        0.0000
     30 C         -13.0555   -2.3435   19.2025 C.ar    1  UNL1        0.0000
@<TRIPOS>BOND
     1    12    13    2
     2    13    14   ar
     3    14    15   ar
     4    15    16   ar
     5    16     1    1
     6     1     2   ar
     7     2    19    1
     8    19    20    1
     9    20    21    1
    10    21    22    1
    11    22    23    1
    12    23    24    1
    13     2     3   ar
    14     3     4   ar
    15     4     5   ar
    16     5     6   ar
    17     6     7   ar
    18     7     8    1
    19     7     9   ar
    20     9    10   ar
    21    10    11   ar
    22    11    25    1
    23    25    26   ar
    24    26    27   ar
    25    27    28   ar
    26    28    29   ar
    27    29    30   ar
    28    16    17   ar
    29    17    13   ar
    30    11     1   ar
    31    30    25   ar
    32    24    19    1
    33    10     4   ar
    34    14    18    1
@<TRIPOS>MOLECULE
*****
 30 34 0 0 0
SMALL
GASTEIGER

@<TRIPOS>ATOM
      1 C           5.0949   -1.9481   23.5823 C.ar    1  UNL1        0.0866
      2 C           4.8469   -1.1546   24.8309 C.ar    1  UNL1        0.1361
      3 N           3.7073   -0.1808   24.8866 N.ar    1  UNL1       -0.2305
      4 C           2.8157   -0.0005   23.6939 C.ar    1  UNL1        0.0827
      5 C           1.6762    0.9733   23.7497 C.ar    1  UNL1        0.0200
      6 C           0.7847    1.1536   22.5569 C.ar    1  UNL1        0.0129
      7 C           1.0327    0.3600   21.3084 C.ar    1  UNL1        0.0578
      8 CL          0.1411    0.5404   20.1156 Cl      1  UNL1       -0.0822
      9 C           2.1722   -0.6138   21.2526 C.ar    1  UNL1        0.0129
     10 C           3.0637   -0.7940   22.4454 C.ar    1  UNL1        0.0188
     11 C           4.2033   -1.7679   22.3896 C.ar    1  UNL1        0.0087
     12 S           8.0377   -6.2787   24.2653 S.2     1  UNL1        0.0107
     13 C           7.5871   -4.9126   23.8405 C.ar    1  UNL1        0.2642
     14 N           8.3889   -3.9285   23.0412 N.ar    1  UNL1       -0.2368
     15 N           7.5529   -2.6983   22.8472 N.ar    1  UNL1       -0.1317
     16 C           6.2345   -2.9220   23.5266 C.ar    1  UNL1        0.2509
     17 O           6.2555   -4.2904   24.1405 O.2     1  UNL1       -0.4118
     18 H           9.3033   -4.0660   22.7032 H       1  UNL1        0.1927
     19 N           5.7385   -1.3349   26.0236 N.pl3   1  UNL1       -0.2931
     20 C           7.0304   -0.5784   26.1154 C.3     1  UNL1        0.0922
     21 C           7.9219   -0.7587   27.3082 C.3     1  UNL1        0.0215
     22 C           7.5215   -1.6955   28.4091 C.3     1  UNL1        0.0035
     23 C           6.2295   -2.4520   28.3172 C.3     1  UNL1        0.0215
     24 C           5.3380   -2.2717   27.1245 C.3     1  UNL1        0.0922
     25 C           4.4513   -2.5614   21.1411 C.ar    1  UNL1        0.0003
     26 C           3.8686   -3.9362   20.9981 C.ar    1  UNL1        0.0000
     27 C           4.1166   -4.7297   19.7496 C.ar    1  UNL1        0.0000
     28 C           4.9473   -4.1485   18.6441 C.ar    1  UNL1        0.0000
     29 C           5.5301   -2.7738   18.7871 C.ar    1  UNL1        0.0000
     30 C           5.2821   -1.9802   20.0356 C.ar    1  UNL1        0.0000
@<TRIPOS>BOND
     1    12    13    2
     2    13    14   ar
     3    14    15   ar
     4    15    16   ar
     5    16     1    1
     6     1     2   ar
     7     2    19    1
     8    19    20    1
     9    20    21    1
    10    21    22    1
    11    22    23    1
    12    23    24    1
    13     2     3   ar
    14     3     4   ar
    15     4     5   ar
    16     5     6   ar
    17     6     7   ar
    18     7     8    1
    19     7     9   ar
    20     9    10   ar
    21    10    11   ar
    22    11    25    1
    23    25    26   ar
    24    26    27   ar
    25    27    28   ar
    26    28    29   ar
    27    29    30   ar
    28    16    17   ar
    29    17    13   ar
    30    11     1   ar
    31    30    25   ar
    32    24    19    1
    33    10     4   ar
    34    14    18    1
@<TRIPOS>MOLECULE
*****
 30 34 0 0 0
SMALL
GASTEIGER

@<TRIPOS>ATOM
      1 C          -0.0123    2.4149   23.5201 C.ar    1  UNL1        0.0866
      2 C          -0.5227    2.5667   22.1178 C.ar    1  UNL1        0.1361
      3 N          -1.8796    3.1574   21.8733 N.ar    1  UNL1       -0.2305
      4 C          -2.7262    3.5964   23.0312 C.ar    1  UNL1        0.0827
      5 C          -4.0831    4.1871   22.7867 C.ar    1  UNL1        0.0200
      6 C          -4.9296    4.6260   23.9446 C.ar    1  UNL1        0.0129
      7 C          -4.4193    4.4743   25.3469 C.ar    1  UNL1        0.0578
      8 CL         -5.2659    4.9133   26.5048 Cl      1  UNL1       -0.0822
      9 C          -3.0624    3.8836   25.5914 C.ar    1  UNL1        0.0129
     10 C          -2.2158    3.4446   24.4335 C.ar    1  UNL1        0.0188
     11 C          -0.8588    2.8539   24.6780 C.ar    1  UNL1        0.0087
     12 S           3.8427   -1.0038   24.6746 S.2     1  UNL1        0.0107
     13 C           3.1166    0.2527   24.2952 C.ar    1  UNL1        0.2642
     14 N           3.7490    1.5774   23.9862 N.ar    1  UNL1       -0.2368
     15 N           2.6538    2.5486   23.6582 N.ar    1  UNL1       -0.1317
     16 C           1.3447    1.8242   23.7645 C.ar    1  UNL1        0.2509
     17 O           1.6306    0.4053   24.1583 O.2     1  UNL1       -0.4118
     18 H           4.7134    1.7748   23.9967 H       1  UNL1        0.1927
     19 N           0.3239    2.1277   20.9599 N.pl3   1  UNL1       -0.2931
     20 C           1.2408    3.1061   20.2877 C.3     1  UNL1        0.0922
     21 C           2.0874    2.6671   19.1299 C.3     1  UNL1        0.0215
     22 C           2.0170    1.2496   18.6443 C.3     1  UNL1        0.0035
     23 C           1.1001    0.2712   19.3165 C.3     1  UNL1        0.0215
     24 C           0.2536    0.7102   20.4743 C.3     1  UNL1        0.0922
     25 C          -0.3485    2.7021   26.0803 C.ar    1  UNL1        0.0003
     26 C          -0.5791    1.4223   26.8280 C.ar    1  UNL1        0.0000
     27 C          -0.0687    1.2705   28.2303 C.ar    1  UNL1        0.0000
     28 C           0.6723    2.3986   28.8849 C.ar    1  UNL1        0.0000
     29 C           0.9029    3.6783   28.1372 C.ar    1  UNL1        0.0000
     30 C           0.3925    3.8301   26.7349 C.ar    1  UNL1        0.0000
@<TRIPOS>BOND
     1    12    13    2
     2    13    14   ar
     3    14    15   ar
     4    15    16   ar
     5    16     1    1
     6     1     2   ar
     7     2    19    1
     8    19    20    1
     9    20    21    1
    10    21    22    1
    11    22    23    1
    12    23    24    1
    13     2     3   ar
    14     3     4   ar
    15     4     5   ar
    16     5     6   ar
    17     6     7   ar
    18     7     8    1
    19     7     9   ar
    20     9    10   ar
    21    10    11   ar
    22    11    25    1
    23    25    26   ar
    24    26    27   ar
    25    27    28   ar
    26    28    29   ar
    27    29    30   ar
    28    16    17   ar
    29    17    13   ar
    30    11     1   ar
    31    30    25   ar
    32    24    19    1
    33    10     4   ar
    34    14    18    1
@<TRIPOS>MOLECULE
*****
 30 34 0 0 0
SMALL
GASTEIGER

@<TRIPOS>ATOM
      1 C           4.6127    0.2848   32.8326 C.ar    1  UNL1        0.0866
      2 C           5.4355   -0.6332   33.6872 C.ar    1  UNL1        0.1361
      3 N           5.3648   -0.5305   35.1820 N.ar    1  UNL1       -0.2305
      4 C           4.4714    0.4903   35.8222 C.ar    1  UNL1        0.0827
      5 C           4.4007    0.5930   37.3170 C.ar    1  UNL1        0.0200
      6 C           3.5073    1.6138   37.9572 C.ar    1  UNL1        0.0129
      7 C           2.6846    2.5318   37.1026 C.ar    1  UNL1        0.0578
      8 CL          1.7911    3.5525   37.7429 Cl      1  UNL1       -0.0822
      9 C           2.7552    2.4290   35.6078 C.ar    1  UNL1        0.0129
     10 C           3.6486    1.4083   34.9676 C.ar    1  UNL1        0.0188
     11 C           3.7193    1.3055   33.4728 C.ar    1  UNL1        0.0087
     12 S           3.4964   -0.9714   27.8269 S.2     1  UNL1        0.0107
     13 C           4.1702   -0.3954   29.0369 C.ar    1  UNL1        0.2642
     14 N           5.4140    0.4431   29.0381 N.ar    1  UNL1       -0.2368
     15 N           5.7311    0.8000   30.4601 N.ar    1  UNL1       -0.1317
     16 C           4.6834    0.1820   31.3377 C.ar    1  UNL1        0.2509
     17 O           3.7187   -0.5568   30.4583 O.2     1  UNL1       -0.4118
     18 H           5.9314    0.7121   28.2448 H       1  UNL1        0.1927
     19 N           6.3289   -1.6540   33.0469 N.pl3   1  UNL1       -0.2931
     20 C           5.7611   -2.9630   32.5844 C.3     1  UNL1        0.0922
     21 C           6.6545   -3.9837   31.9442 C.3     1  UNL1        0.0215
     22 C           8.1158   -3.6954   31.7665 C.3     1  UNL1        0.0035
     23 C           8.6836   -2.3864   32.2290 C.3     1  UNL1        0.0215
     24 C           7.7902   -1.3657   32.8693 C.3     1  UNL1        0.0922
     25 C           2.8966    2.2236   32.6182 C.ar    1  UNL1        0.0003
     26 C           3.4713    3.5273   32.1490 C.ar    1  UNL1        0.0000
     27 C           2.6485    4.4453   31.2944 C.ar    1  UNL1        0.0000
     28 C           1.2511    4.0596   30.9090 C.ar    1  UNL1        0.0000
     29 C           0.6764    2.7559   31.3782 C.ar    1  UNL1        0.0000
     30 C           1.4992    1.8379   32.2328 C.ar    1  UNL1        0.0000
@<TRIPOS>BOND
     1    12    13    2
     2    13    14   ar
     3    14    15   ar
     4    15    16   ar
     5    16     1    1
     6     1     2   ar
     7     2    19    1
     8    19    20    1
     9    20    21    1
    10    21    22    1
    11    22    23    1
    12    23    24    1
    13     2     3   ar
    14     3     4   ar
    15     4     5   ar
    16     5     6   ar
    17     6     7   ar
    18     7     8    1
    19     7     9   ar
    20     9    10   ar
    21    10    11   ar
    22    11    25    1
    23    25    26   ar
    24    26    27   ar
    25    27    28   ar
    26    28    29   ar
    27    29    30   ar
    28    16    17   ar
    29    17    13   ar
    30    11     1   ar
    31    30    25   ar
    32    24    19    1
    33    10     4   ar
    34    14    18    1
@<TRIPOS>MOLECULE
*****
 30 34 0 0 0
SMALL
GASTEIGER

@<TRIPOS>ATOM
      1 C           5.4912   -2.3964   23.5309 C.ar    1  UNL1        0.0866
      2 C           5.9761   -3.4665   22.5984 C.ar    1  UNL1        0.1361
      3 N           6.7440   -4.6378   23.1354 N.ar    1  UNL1       -0.2305
      4 C           7.0271   -4.7389   24.6050 C.ar    1  UNL1        0.0827
      5 C           7.7951   -5.9101   25.1420 C.ar    1  UNL1        0.0200
      6 C           8.0781   -6.0111   26.6116 C.ar    1  UNL1        0.0129
      7 C           7.5932   -4.9410   27.5441 C.ar    1  UNL1        0.0578
      8 CL          7.8763   -5.0421   29.0137 Cl      1  UNL1       -0.0822
      9 C           6.8253   -3.7697   27.0071 C.ar    1  UNL1        0.0129
     10 C           6.5422   -3.6687   25.5375 C.ar    1  UNL1        0.0188
     11 C           5.7742   -2.4974   25.0004 C.ar    1  UNL1        0.0087
     12 S           1.5374    0.6641   21.8331 S.2     1  UNL1        0.0107
     13 C           2.9058    0.1816   22.2134 C.ar    1  UNL1        0.2642
     14 N           4.1769    0.9728   22.1212 N.ar    1  UNL1       -0.2368
     15 N           5.3001    0.1034   22.6035 N.ar    1  UNL1       -0.1317
     16 C           4.7232   -1.2251   22.9938 C.ar    1  UNL1        0.2509
     17 O           3.2435   -1.1768   22.7527 O.2     1  UNL1       -0.4118
     18 H           4.2595    1.8999   21.8005 H       1  UNL1        0.1927
     19 N           5.6930   -3.3654   21.1287 N.pl3   1  UNL1       -0.2931
     20 C           6.6593   -2.6578   20.2258 C.3     1  UNL1        0.0922
     21 C           6.3762   -2.5567   18.7562 C.3     1  UNL1        0.0215
     22 C           5.1268   -3.1633   18.1897 C.3     1  UNL1        0.0035
     23 C           4.1605   -3.8710   19.0926 C.3     1  UNL1        0.0215
     24 C           4.4436   -3.9721   20.5622 C.3     1  UNL1        0.0922
     25 C           5.2893   -1.4272   25.9330 C.ar    1  UNL1        0.0003
     26 C           6.1717   -0.2580   26.2563 C.ar    1  UNL1        0.0000
     27 C           5.6868    0.8121   27.1889 C.ar    1  UNL1        0.0000
     28 C           4.3195    0.7131   27.7980 C.ar    1  UNL1        0.0000
     29 C           3.4373   -0.4561   27.4746 C.ar    1  UNL1        0.0000
     30 C           3.9222   -1.5262   26.5421 C.ar    1  UNL1        0.0000
@<TRIPOS>BOND
     1    12    13    2
     2    13    14   ar
     3    14    15   ar
     4    15    16   ar
     5    16     1    1
     6     1     2   ar
     7     2    19    1
     8    19    20    1
     9    20    21    1
    10    21    22    1
    11    22    23    1
    12    23    24    1
    13     2     3   ar
    14     3     4   ar
    15     4     5   ar
    16     5     6   ar
    17     6     7   ar
    18     7     8    1
    19     7     9   ar
    20     9    10   ar
    21    10    11   ar
    22    11    25    1
    23    25    26   ar
    24    26    27   ar
    25    27    28   ar
    26    28    29   ar
    27    29    30   ar
    28    16    17   ar
    29    17    13   ar
    30    11     1   ar
    31    30    25   ar
    32    24    19    1
    33    10     4   ar
    34    14    18    1
