@<TRIPOS>MOLECULE
*****
 36 39 0 0 0
SMALL
GASTEIGER

@<TRIPOS>ATOM
      1 C          -5.9723  -16.1514   23.8040 C.3     1  UNL1        0.1225
      2 O          -6.6280  -15.5563   25.0147 O.3     1  UNL1       -0.3559
      3 C          -8.0844  -15.8023   25.2761 C.3     1  UNL1        0.1441
      4 C          -8.8852  -16.6434   24.3267 C.3     1  UNL1        0.0589
      5 C          -8.2295  -17.2385   23.1160 C.3     1  UNL1        0.1466
      6 C          -9.0303  -18.0797   22.1666 C.ar    1  UNL1        0.0618
      7 C         -10.4867  -18.3256   22.4280 C.ar    1  UNL1        0.1407
      8 F         -11.4382  -17.9000   23.5066 F       1  UNL1       -0.2043
      9 C         -11.2874  -19.1667   21.4786 C.ar    1  UNL1        0.0319
     10 C         -10.6318  -19.7619   20.2678 C.ar    1  UNL1        0.0351
     11 C          -9.1753  -19.5159   20.0065 C.ar    1  UNL1        0.1737
     12 F          -8.5197  -20.1111   18.7958 F       1  UNL1       -0.2010
     13 C          -8.3746  -18.6748   20.9559 C.ar    1  UNL1        0.1655
     14 O          -6.9181  -18.4288   20.6945 O.3     1  UNL1       -0.4732
     15 C          -6.1174  -17.5877   21.6439 C.3     1  UNL1        0.2098
     16 C          -6.7731  -16.9925   22.8547 C.3     1  UNL1        0.0957
     17 S          -9.6859  -17.4845   23.3774 S.O2    1  UNL1        0.0094
     18 O         -10.1992  -16.8951   23.2202 O.2     1  UNL1       -0.1684
     19 O          -9.7286  -18.8896   23.9006 O.2     1  UNL1       -0.1684
     20 C         -11.1424  -17.7304   23.6387 C.ar    1  UNL1        0.1059
     21 C         -12.1814  -16.9725   22.8666 C.ar    1  UNL1        0.0192
     22 C         -13.6378  -17.2185   23.1280 C.ar    1  UNL1        0.0127
     23 C         -14.0552  -18.2224   24.1615 C.ar    1  UNL1        0.0578
     24 CL        -15.5117  -18.4683   24.4228 Cl      1  UNL1       -0.0822
     25 C         -13.0163  -18.9802   24.9335 C.ar    1  UNL1        0.0127
     26 C         -11.5598  -18.7343   24.6722 C.ar    1  UNL1        0.0192
     27 C          -4.5159  -15.9055   23.5427 C.3     1  UNL1        0.0550
     28 C          -3.5794  -17.0639   23.3666 C.3     1  UNL1        0.1534
     29 S          -2.5168  -17.0153   22.3089 S.O2    1  UNL1       -0.0085
     30 O          -2.9376  -15.6209   21.9503 O.2     1  UNL1       -0.1729
     31 O          -2.0961  -18.4097   22.6676 O.2     1  UNL1       -0.1729
     32 C          -1.4543  -16.9667   21.2513 C.3     1  UNL1        0.1681
     33 C          -1.4247  -18.0053   20.1696 C.3     1  UNL1        0.0978
     34 C          -2.9166  -17.1674   18.2146 C.3     1  UNL1        0.0897
     35 N          -2.6124  -18.1872   19.2717 N.3     1  UNL1       -0.2688
     36 C          -3.4960  -19.3888   19.4309 C.3     1  UNL1        0.0897
@<TRIPOS>BOND
     1    34    35    1
     2    35    36    1
     3    35    33    1
     4    33    32    1
     5    32    29    1
     6    29    30    2
     7    29    31    2
     8    29    28    1
     9    28    27    1
    10     1    27    1
    11     1     2    1
    12     2     3    1
    13     3     4    1
    14     4     5    1
    15     5    17    1
    16    17    18    2
    17    17    19    2
    18    17    20    1
    19    20    21   ar
    20    21    22   ar
    21    22    23   ar
    22    23    24    1
    23    23    25   ar
    24    25    26   ar
    25     5     6    1
    26     6     7   ar
    27     7     8    1
    28     7     9   ar
    29     9    10   ar
    30    10    11   ar
    31    11    12    1
    32    11    13   ar
    33    13    14    1
    34    14    15    1
    35    16    15    1
    36    16     1    1
    37    16     5    1
    38    26    20   ar
    39    13     6   ar
@<TRIPOS>MOLECULE
*****
 36 39 0 0 0
SMALL
GASTEIGER

@<TRIPOS>ATOM
      1 C          -5.5354  -19.7176   20.6437 C.3     1  UNL1        0.1225
      2 O          -6.5828  -20.5913   20.0198 O.3     1  UNL1       -0.3559
      3 C          -8.0173  -20.4572   20.4371 C.3     1  UNL1        0.1441
      4 C          -8.4044  -19.4492   21.4784 C.3     1  UNL1        0.0589
      5 C          -7.3569  -18.5754   22.1022 C.3     1  UNL1        0.1466
      6 C          -7.7439  -17.5674   23.1435 C.ar    1  UNL1        0.0618
      7 C          -9.1784  -17.4332   23.5609 C.ar    1  UNL1        0.1407
      8 F         -10.4492  -18.1216   23.1593 F       1  UNL1       -0.2043
      9 C          -9.5654  -16.4253   24.6021 C.ar    1  UNL1        0.0319
     10 C          -8.5179  -15.5514   25.2260 C.ar    1  UNL1        0.0351
     11 C          -7.0834  -15.6856   24.8087 C.ar    1  UNL1        0.1737
     12 F          -6.0360  -14.8118   25.4325 F       1  UNL1       -0.2010
     13 C          -6.6964  -16.6936   23.7674 C.ar    1  UNL1        0.1655
     14 O          -5.2619  -16.8278   23.3500 O.3     1  UNL1       -0.4732
     15 C          -4.8749  -17.8358   22.3088 C.3     1  UNL1        0.2098
     16 C          -5.9224  -18.7096   21.6849 C.3     1  UNL1        0.0957
     17 S          -8.7914  -18.4413   22.5196 S.O2    1  UNL1        0.0094
     18 O          -9.0823  -18.9741   23.0362 O.2     1  UNL1       -0.1684
     19 O          -9.2772  -17.2377   21.7676 O.2     1  UNL1       -0.1684
     20 C         -10.2259  -18.3071   22.9370 C.ar    1  UNL1        0.1059
     21 C         -11.1624  -17.4500   22.1380 C.ar    1  UNL1        0.0192
     22 C         -12.5969  -17.3158   22.5553 C.ar    1  UNL1        0.0127
     23 C         -13.0949  -18.0388   23.7717 C.ar    1  UNL1        0.0578
     24 CL        -14.5294  -17.9046   24.1890 Cl      1  UNL1       -0.0822
     25 C         -12.1584  -18.8958   24.5706 C.ar    1  UNL1        0.0127
     26 C         -10.7239  -19.0300   24.1532 C.ar    1  UNL1        0.0192
     27 C          -4.1008  -19.8517   20.2263 C.3     1  UNL1        0.0550
     28 C          -3.6014  -19.1239   19.0136 C.3     1  UNL1        0.1534
     29 S          -2.3632  -18.2817   19.1013 S.O2    1  UNL1       -0.0085
     30 O          -3.1398  -17.0904   18.6241 O.2     1  UNL1       -0.1729
     31 O          -1.5867  -19.4730   19.5785 O.2     1  UNL1       -0.1729
     32 C          -1.1251  -17.4395   19.1890 C.3     1  UNL1        0.1681
     33 C          -0.5683  -17.0620   20.5297 C.3     1  UNL1        0.0978
     34 C          -1.6043  -18.0851   22.6814 C.3     1  UNL1        0.0897
     35 N          -1.4804  -16.9449   21.7147 N.3     1  UNL1       -0.2688
     36 C          -2.2686  -15.6875   21.9331 C.3     1  UNL1        0.0897
@<TRIPOS>BOND
     1    34    35    1
     2    35    36    1
     3    35    33    1
     4    33    32    1
     5    32    29    1
     6    29    30    2
     7    29    31    2
     8    29    28    1
     9    28    27    1
    10     1    27    1
    11     1     2    1
    12     2     3    1
    13     3     4    1
    14     4     5    1
    15     5    17    1
    16    17    18    2
    17    17    19    2
    18    17    20    1
    19    20    21   ar
    20    21    22   ar
    21    22    23   ar
    22    23    24    1
    23    23    25   ar
    24    25    26   ar
    25     5     6    1
    26     6     7   ar
    27     7     8    1
    28     7     9   ar
    29     9    10   ar
    30    10    11   ar
    31    11    12    1
    32    11    13   ar
    33    13    14    1
    34    14    15    1
    35    16    15    1
    36    16     1    1
    37    16     5    1
    38    26    20   ar
    39    13     6   ar
@<TRIPOS>MOLECULE
*****
 36 39 0 0 0
SMALL
GASTEIGER

@<TRIPOS>ATOM
      1 C         -14.6231   -0.8408   18.5156 C.3     1  UNL1        0.1225
      2 O         -16.0792   -1.1375   18.3117 O.3     1  UNL1       -0.3559
      3 C         -16.5512   -2.5591   18.2334 C.3     1  UNL1        0.1441
      4 C         -15.5671   -3.6841   18.3589 C.3     1  UNL1        0.0589
      5 C         -14.1109   -3.3875   18.5628 C.3     1  UNL1        0.1466
      6 C         -13.1267   -4.5125   18.6883 C.ar    1  UNL1        0.0618
      7 C         -13.5987   -5.9341   18.6100 C.ar    1  UNL1        0.1407
      8 F         -14.9401   -6.5777   18.4188 F       1  UNL1       -0.2043
      9 C         -12.6145   -7.0591   18.7355 C.ar    1  UNL1        0.0319
     10 C         -11.1583   -6.7625   18.9394 C.ar    1  UNL1        0.0351
     11 C         -10.6863   -5.3409   19.0177 C.ar    1  UNL1        0.1737
     12 F          -9.2302   -5.0442   19.2216 F       1  UNL1       -0.2010
     13 C         -11.6706   -4.2158   18.8922 C.ar    1  UNL1        0.1655
     14 O         -11.1986   -2.7942   18.9705 O.3     1  UNL1       -0.4732
     15 C         -12.1827   -1.6692   18.8450 C.3     1  UNL1        0.2098
     16 C         -13.6389   -1.9658   18.6411 C.3     1  UNL1        0.0957
     17 S         -14.5829   -4.8091   18.4845 S.O2    1  UNL1        0.0094
     18 O         -14.7765   -5.1003   17.7681 O.2     1  UNL1       -0.1684
     19 O         -14.5404   -5.2846   19.9065 O.2     1  UNL1       -0.1684
     20 C         -15.0549   -6.2308   18.4061 C.ar    1  UNL1        0.1059
     21 C         -14.9776   -6.9762   17.1067 C.ar    1  UNL1        0.0192
     22 C         -15.4495   -8.3978   17.0284 C.ar    1  UNL1        0.0127
     23 C         -15.9989   -9.0741   18.2495 C.ar    1  UNL1        0.0578
     24 CL        -16.4709  -10.4957   18.1712 Cl      1  UNL1       -0.0822
     25 C         -16.0762   -8.3286   19.5488 C.ar    1  UNL1        0.0127
     26 C         -15.6042   -6.9070   19.6272 C.ar    1  UNL1        0.0192
     27 C         -14.1511    0.5808   18.5939 C.3     1  UNL1        0.0550
     28 C         -14.8786    1.6552   17.8413 C.3     1  UNL1        0.1534
     29 S         -15.8346    2.5594   18.5613 S.O2    1  UNL1       -0.0085
     30 O         -16.8591    2.3292   17.4901 O.2     1  UNL1       -0.1729
     31 O         -14.8101    2.7896   19.6325 O.2     1  UNL1       -0.1729
     32 C         -16.7906    3.4636   19.2813 C.3     1  UNL1        0.1681
     33 C         -18.0116    2.8928   19.9394 C.3     1  UNL1        0.0978
     34 C         -17.3528    2.0422   22.3042 C.3     1  UNL1        0.0897
     35 N         -17.8769    1.7704   20.9253 N.3     1  UNL1       -0.2688
     36 C         -18.2663    0.3762   20.5323 C.3     1  UNL1        0.0897
@<TRIPOS>BOND
     1    34    35    1
     2    35    36    1
     3    35    33    1
     4    33    32    1
     5    32    29    1
     6    29    30    2
     7    29    31    2
     8    29    28    1
     9    28    27    1
    10     1    27    1
    11     1     2    1
    12     2     3    1
    13     3     4    1
    14     4     5    1
    15     5    17    1
    16    17    18    2
    17    17    19    2
    18    17    20    1
    19    20    21   ar
    20    21    22   ar
    21    22    23   ar
    22    23    24    1
    23    23    25   ar
    24    25    26   ar
    25     5     6    1
    26     6     7   ar
    27     7     8    1
    28     7     9   ar
    29     9    10   ar
    30    10    11   ar
    31    11    12    1
    32    11    13   ar
    33    13    14    1
    34    14    15    1
    35    16    15    1
    36    16     1    1
    37    16     5    1
    38    26    20   ar
    39    13     6   ar
@<TRIPOS>MOLECULE
*****
 36 39 0 0 0
SMALL
GASTEIGER

@<TRIPOS>ATOM
      1 C         -14.1045   -0.6978   18.2406 C.3     1  UNL1        0.1225
      2 O         -15.5748   -0.8747   18.0019 O.3     1  UNL1       -0.3559
      3 C         -16.1667   -2.2522   17.9558 C.3     1  UNL1        0.1441
      4 C         -15.2884   -3.4528   18.1483 C.3     1  UNL1        0.0589
      5 C         -13.8181   -3.2759   18.3870 C.3     1  UNL1        0.1466
      6 C         -12.9397   -4.4765   18.5795 C.ar    1  UNL1        0.0618
      7 C         -13.5317   -5.8540   18.5334 C.ar    1  UNL1        0.1407
      8 F         -14.9183   -6.3857   18.3222 F       1  UNL1       -0.2043
      9 C         -12.6534   -7.0546   18.7259 C.ar    1  UNL1        0.0319
     10 C         -11.1830   -6.8777   18.9646 C.ar    1  UNL1        0.0351
     11 C         -10.5911   -5.5002   19.0107 C.ar    1  UNL1        0.1737
     12 F          -9.1208   -5.3233   19.2494 F       1  UNL1       -0.2010
     13 C         -11.4695   -4.2996   18.8182 C.ar    1  UNL1        0.1655
     14 O         -10.8775   -2.9221   18.8644 O.3     1  UNL1       -0.4732
     15 C         -11.7559   -1.7215   18.6719 C.3     1  UNL1        0.2098
     16 C         -13.2262   -1.8984   18.4332 C.3     1  UNL1        0.0957
     17 S         -14.4101   -4.6534   18.3408 S.O2    1  UNL1        0.0094
     18 O         -14.7286   -4.9465   19.0102 O.2     1  UNL1       -0.1684
     19 O         -14.2001   -5.0913   16.9217 O.2     1  UNL1       -0.1684
     20 C         -15.0020   -6.0309   18.2947 C.ar    1  UNL1        0.1059
     21 C         -15.5079   -6.6723   19.5527 C.ar    1  UNL1        0.0192
     22 C         -16.0998   -8.0498   19.5066 C.ar    1  UNL1        0.0127
     23 C         -16.1859   -8.7859   18.2023 C.ar    1  UNL1        0.0578
     24 CL        -16.7778  -10.1633   18.1562 Cl      1  UNL1       -0.0822
     25 C         -15.6800   -8.1444   16.9444 C.ar    1  UNL1        0.0127
     26 C         -15.0881   -6.7669   16.9905 C.ar    1  UNL1        0.0192
     27 C         -13.5126    0.6797   18.2868 C.3     1  UNL1        0.0550
     28 C         -13.1592    1.3872   17.0123 C.3     1  UNL1        0.1534
     29 S         -13.3288    2.8740   16.9080 S.O2    1  UNL1       -0.0085
     30 O         -14.7855    2.6864   16.6033 O.2     1  UNL1       -0.1729
     31 O         -11.8721    3.0615   17.2126 O.2     1  UNL1       -0.1729
     32 C         -13.4984    4.3607   16.8036 C.3     1  UNL1        0.1681
     33 C         -14.6403    5.0363   17.5033 C.3     1  UNL1        0.0978
     34 C         -15.3242    4.6461   19.9792 C.3     1  UNL1        0.0897
     35 N         -14.5237    5.3948   18.9552 N.3     1  UNL1       -0.2688
     36 C         -13.6066    6.5019   19.3830 C.3     1  UNL1        0.0897
@<TRIPOS>BOND
     1    34    35    1
     2    35    36    1
     3    35    33    1
     4    33    32    1
     5    32    29    1
     6    29    30    2
     7    29    31    2
     8    29    28    1
     9    28    27    1
    10     1    27    1
    11     1     2    1
    12     2     3    1
    13     3     4    1
    14     4     5    1
    15     5    17    1
    16    17    18    2
    17    17    19    2
    18    17    20    1
    19    20    21   ar
    20    21    22   ar
    21    22    23   ar
    22    23    24    1
    23    23    25   ar
    24    25    26   ar
    25     5     6    1
    26     6     7   ar
    27     7     8    1
    28     7     9   ar
    29     9    10   ar
    30    10    11   ar
    31    11    12    1
    32    11    13   ar
    33    13    14    1
    34    14    15    1
    35    16    15    1
    36    16     1    1
    37    16     5    1
    38    26    20   ar
    39    13     6   ar
@<TRIPOS>MOLECULE
*****
 36 39 0 0 0
SMALL
GASTEIGER

@<TRIPOS>ATOM
      1 C         -11.9144   -5.2964   18.7285 C.3     1  UNL1        0.1225
      2 O         -11.5908   -6.6325   18.1285 O.3     1  UNL1       -0.3559
      3 C         -12.6929   -7.6005   17.8146 C.3     1  UNL1        0.1441
      4 C         -14.1185   -7.2323   18.1008 C.3     1  UNL1        0.0589
      5 C         -14.4421   -5.8962   18.7008 C.3     1  UNL1        0.1466
      6 C         -15.8678   -5.5280   18.9869 C.ar    1  UNL1        0.0618
      7 C         -16.9699   -6.4960   18.6731 C.ar    1  UNL1        0.1407
      8 F         -17.0090   -7.8762   18.0870 F       1  UNL1       -0.2043
      9 C         -18.3955   -6.1278   18.9592 C.ar    1  UNL1        0.0319
     10 C         -18.7192   -4.7916   19.5593 C.ar    1  UNL1        0.0351
     11 C         -17.6171   -3.8237   19.8731 C.ar    1  UNL1        0.1737
     12 F         -17.9407   -2.4876   20.4731 F       1  UNL1       -0.2010
     13 C         -16.1914   -4.1919   19.5869 C.ar    1  UNL1        0.1655
     14 O         -15.0893   -3.2239   19.9008 O.3     1  UNL1       -0.4732
     15 C         -13.6637   -3.5921   19.6147 C.3     1  UNL1        0.2098
     16 C         -13.3400   -4.9283   19.0146 C.3     1  UNL1        0.0957
     17 S         -15.5442   -6.8642   18.3869 S.O2    1  UNL1        0.0094
     18 O         -15.7561   -6.9555   17.6239 O.2     1  UNL1       -0.1684
     19 O         -15.9413   -7.4091   19.7268 O.2     1  UNL1       -0.1684
     20 C         -16.6462   -7.8321   18.0731 C.ar    1  UNL1        0.1059
     21 C         -17.3761   -7.7395   16.7658 C.ar    1  UNL1        0.0192
     22 C         -18.4781   -8.7075   16.4520 C.ar    1  UNL1        0.0127
     23 C         -18.8504   -9.7681   17.4454 C.ar    1  UNL1        0.0578
     24 CL        -19.9524  -10.7360   17.1315 Cl      1  UNL1       -0.0822
     25 C         -18.1205   -9.8606   18.7525 C.ar    1  UNL1        0.0127
     26 C         -17.0185   -8.8926   19.0664 C.ar    1  UNL1        0.0192
     27 C         -10.8123   -4.3284   19.0423 C.3     1  UNL1        0.0550
     28 C         -10.1888   -3.5198   17.9436 C.3     1  UNL1        0.1534
     29 S         -10.9758   -2.4331   17.2729 S.O2    1  UNL1       -0.0085
     30 O         -10.9854   -1.6504   18.5525 O.2     1  UNL1       -0.1729
     31 O         -10.9662   -3.2158   15.9934 O.2     1  UNL1       -0.1729
     32 C         -11.7628   -1.3464   16.6023 C.3     1  UNL1        0.1681
     33 C         -12.8830   -0.6700   17.3353 C.3     1  UNL1        0.0978
     34 C         -14.5948   -2.2517   16.1873 C.3     1  UNL1        0.0897
     35 N         -14.3022   -1.0868   17.0858 N.3     1  UNL1       -0.2688
     36 C         -15.4287   -0.3388   17.7349 C.3     1  UNL1        0.0897
@<TRIPOS>BOND
     1    34    35    1
     2    35    36    1
     3    35    33    1
     4    33    32    1
     5    32    29    1
     6    29    30    2
     7    29    31    2
     8    29    28    1
     9    28    27    1
    10     1    27    1
    11     1     2    1
    12     2     3    1
    13     3     4    1
    14     4     5    1
    15     5    17    1
    16    17    18    2
    17    17    19    2
    18    17    20    1
    19    20    21   ar
    20    21    22   ar
    21    22    23   ar
    22    23    24    1
    23    23    25   ar
    24    25    26   ar
    25     5     6    1
    26     6     7   ar
    27     7     8    1
    28     7     9   ar
    29     9    10   ar
    30    10    11   ar
    31    11    12    1
    32    11    13   ar
    33    13    14    1
    34    14    15    1
    35    16    15    1
    36    16     1    1
    37    16     5    1
    38    26    20   ar
    39    13     6   ar
@<TRIPOS>MOLECULE
*****
 36 39 0 0 0
SMALL
GASTEIGER

@<TRIPOS>ATOM
      1 C         -11.7395   -4.7478   19.2366 C.3     1  UNL1        0.1225
      2 O         -12.8812   -5.5631   19.7675 O.3     1  UNL1       -0.3559
      3 C         -14.2429   -4.9486   19.9018 C.3     1  UNL1        0.1441
      4 C         -14.4630   -3.5189   19.5051 C.3     1  UNL1        0.0589
      5 C         -13.3213   -2.7036   18.9742 C.3     1  UNL1        0.1466
      6 C         -13.5414   -1.2738   18.5775 C.ar    1  UNL1        0.0618
      7 C         -14.9031   -0.6593   18.7118 C.ar    1  UNL1        0.1407
      8 F         -16.2319   -1.1648   19.1902 F       1  UNL1       -0.2043
      9 C         -15.1232    0.7704   18.3151 C.ar    1  UNL1        0.0319
     10 C         -13.9815    1.5857   17.7842 C.ar    1  UNL1        0.0351
     11 C         -12.6197    0.9713   17.6499 C.ar    1  UNL1        0.1737
     12 F         -11.4781    1.7865   17.1190 F       1  UNL1       -0.2010
     13 C         -12.3997   -0.4586   18.0466 C.ar    1  UNL1        0.1655
     14 O         -11.0379   -1.0731   17.9124 O.3     1  UNL1       -0.4732
     15 C         -10.8179   -2.5028   18.3090 C.3     1  UNL1        0.2098
     16 C         -11.9596   -3.3181   18.8400 C.3     1  UNL1        0.0957
     17 S         -14.6831   -2.0891   19.1084 S.O2    1  UNL1        0.0094
     18 O         -14.9609   -1.9516   19.8428 O.2     1  UNL1       -0.1684
     19 O         -15.1408   -1.9078   17.6916 O.2     1  UNL1       -0.1684
     20 C         -16.0449   -1.4747   19.2427 C.ar    1  UNL1        0.1059
     21 C         -16.3401   -0.5477   20.3845 C.ar    1  UNL1        0.0192
     22 C         -17.7019    0.0668   20.5187 C.ar    1  UNL1        0.0127
     23 C         -18.7684   -0.2457   19.5112 C.ar    1  UNL1        0.0578
     24 CL        -20.1301    0.3688   19.6454 Cl      1  UNL1       -0.0822
     25 C         -18.4731   -1.1726   18.3695 C.ar    1  UNL1        0.0127
     26 C         -17.1113   -1.7871   18.2352 C.ar    1  UNL1        0.0192
     27 C         -10.3777   -5.3623   19.1024 C.3     1  UNL1        0.0550
     28 C          -9.9610   -5.9858   17.8034 C.3     1  UNL1        0.1534
     29 S         -10.9912   -6.5952   16.8993 S.O2    1  UNL1       -0.0085
     30 O         -10.9091   -5.3982   15.9990 O.2     1  UNL1       -0.1729
     31 O         -11.0733   -7.7921   17.7996 O.2     1  UNL1       -0.1729
     32 C         -12.0214   -7.2046   15.9952 C.3     1  UNL1        0.1681
     33 C         -13.2898   -7.7609   16.5712 C.3     1  UNL1        0.0978
     34 C         -15.6995   -7.3831   17.4658 C.3     1  UNL1        0.0897
     35 N         -14.4875   -6.8744   16.7432 N.3     1  UNL1       -0.2688
     36 C         -14.4732   -5.4792   16.1927 C.3     1  UNL1        0.0897
@<TRIPOS>BOND
     1    34    35    1
     2    35    36    1
     3    35    33    1
     4    33    32    1
     5    32    29    1
     6    29    30    2
     7    29    31    2
     8    29    28    1
     9    28    27    1
    10     1    27    1
    11     1     2    1
    12     2     3    1
    13     3     4    1
    14     4     5    1
    15     5    17    1
    16    17    18    2
    17    17    19    2
    18    17    20    1
    19    20    21   ar
    20    21    22   ar
    21    22    23   ar
    22    23    24    1
    23    23    25   ar
    24    25    26   ar
    25     5     6    1
    26     6     7   ar
    27     7     8    1
    28     7     9   ar
    29     9    10   ar
    30    10    11   ar
    31    11    12    1
    32    11    13   ar
    33    13    14    1
    34    14    15    1
    35    16    15    1
    36    16     1    1
    37    16     5    1
    38    26    20   ar
    39    13     6   ar
@<TRIPOS>MOLECULE
*****
 36 39 0 0 0
SMALL
GASTEIGER

@<TRIPOS>ATOM
      1 C         -14.6423   -0.8502   18.5134 C.3     1  UNL1        0.1225
      2 O         -16.1031   -1.1320   18.3218 O.3     1  UNL1       -0.3559
      3 C         -16.5908   -2.5488   18.2514 C.3     1  UNL1        0.1441
      4 C         -15.6177   -3.6838   18.3727 C.3     1  UNL1        0.0589
      5 C         -14.1569   -3.4020   18.5643 C.3     1  UNL1        0.1466
      6 C         -13.1837   -4.5371   18.6856 C.ar    1  UNL1        0.0618
      7 C         -13.6714   -5.9539   18.6152 C.ar    1  UNL1        0.1407
      8 F         -15.0210   -6.5837   18.4364 F       1  UNL1       -0.2043
      9 C         -12.6983   -7.0889   18.7365 C.ar    1  UNL1        0.0319
     10 C         -11.2374   -6.8072   18.9282 C.ar    1  UNL1        0.0351
     11 C         -10.7498   -5.3904   18.9985 C.ar    1  UNL1        0.1737
     12 F          -9.2890   -5.1087   19.1902 F       1  UNL1       -0.2010
     13 C         -11.7230   -4.2554   18.8772 C.ar    1  UNL1        0.1655
     14 O         -11.2353   -2.8386   18.9476 O.3     1  UNL1       -0.4732
     15 C         -12.2084   -1.7036   18.8263 C.3     1  UNL1        0.2098
     16 C         -13.6693   -1.9853   18.6347 C.3     1  UNL1        0.0957
     17 S         -14.6446   -4.8188   18.4939 S.O2    1  UNL1        0.0094
     18 O         -14.7455   -5.2144   19.1786 O.2     1  UNL1       -0.1684
     19 O         -14.8055   -5.0747   17.0247 O.2     1  UNL1       -0.1684
     20 C         -15.1322   -6.2356   18.4236 C.ar    1  UNL1        0.1059
     21 C         -15.6353   -6.9180   19.6611 C.ar    1  UNL1        0.0192
     22 C         -16.1229   -8.3347   19.5907 C.ar    1  UNL1        0.0127
     23 C         -16.1075   -9.0691   18.2828 C.ar    1  UNL1        0.0578
     24 CL        -16.5952  -10.4859   18.2124 Cl      1  UNL1       -0.0822
     25 C         -15.6045   -8.3867   17.0454 C.ar    1  UNL1        0.0127
     26 C         -15.1168   -6.9700   17.1158 C.ar    1  UNL1        0.0192
     27 C         -14.1547    0.5665   18.5838 C.3     1  UNL1        0.0550
     28 C         -14.8773    1.6465   17.8346 C.3     1  UNL1        0.1534
     29 S         -15.3629    2.8664   18.5599 S.O2    1  UNL1       -0.0085
     30 O         -14.1026    3.5895   18.1876 O.2     1  UNL1       -0.1729
     31 O         -16.6233    2.1433   18.9322 O.2     1  UNL1       -0.1729
     32 C         -15.8486    4.0863   19.2852 C.3     1  UNL1        0.1681
     33 C         -15.6658    4.1986   20.7697 C.3     1  UNL1        0.0978
     34 C         -14.1597    6.2992   20.5064 C.3     1  UNL1        0.0897
     35 N         -14.6442    5.1431   21.3303 N.3     1  UNL1       -0.2688
     36 C         -14.1070    4.9316   22.7147 C.3     1  UNL1        0.0897
@<TRIPOS>BOND
     1    34    35    1
     2    35    36    1
     3    35    33    1
     4    33    32    1
     5    32    29    1
     6    29    30    2
     7    29    31    2
     8    29    28    1
     9    28    27    1
    10     1    27    1
    11     1     2    1
    12     2     3    1
    13     3     4    1
    14     4     5    1
    15     5    17    1
    16    17    18    2
    17    17    19    2
    18    17    20    1
    19    20    21   ar
    20    21    22   ar
    21    22    23   ar
    22    23    24    1
    23    23    25   ar
    24    25    26   ar
    25     5     6    1
    26     6     7   ar
    27     7     8    1
    28     7     9   ar
    29     9    10   ar
    30    10    11   ar
    31    11    12    1
    32    11    13   ar
    33    13    14    1
    34    14    15    1
    35    16    15    1
    36    16     1    1
    37    16     5    1
    38    26    20   ar
    39    13     6   ar
@<TRIPOS>MOLECULE
*****
 36 39 0 0 0
SMALL
GASTEIGER

@<TRIPOS>ATOM
      1 C          -0.9228    3.1549   20.4382 C.3     1  UNL1        0.1225
      2 O          -1.8780    3.6481   19.3921 O.3     1  UNL1       -0.3559
      3 C          -3.2143    4.1970   19.7956 C.3     1  UNL1        0.1441
      4 C          -3.5956    4.2527   21.2453 C.3     1  UNL1        0.0589
      5 C          -2.6404    3.7595   22.2914 C.3     1  UNL1        0.1466
      6 C          -3.0216    3.8152   23.7411 C.ar    1  UNL1        0.0618
      7 C          -4.3580    4.3641   24.1447 C.ar    1  UNL1        0.1407
      8 F          -5.5247    4.9271   23.3885 F       1  UNL1       -0.2043
      9 C          -4.7392    4.4198   25.5943 C.ar    1  UNL1        0.0319
     10 C          -3.7840    3.9265   26.6405 C.ar    1  UNL1        0.0351
     11 C          -2.4477    3.3776   26.2370 C.ar    1  UNL1        0.1737
     12 F          -1.4925    2.8844   27.2831 F       1  UNL1       -0.2010
     13 C          -2.0665    3.3220   24.7873 C.ar    1  UNL1        0.1655
     14 O          -0.7301    2.7731   24.3837 O.3     1  UNL1       -0.4732
     15 C          -0.3489    2.7174   22.9341 C.3     1  UNL1        0.2098
     16 C          -1.3041    3.2106   21.8879 C.3     1  UNL1        0.0957
     17 S          -3.9768    4.3084   22.6949 S.O2    1  UNL1        0.0094
     18 O          -4.0306    5.0892   22.8459 O.2     1  UNL1       -0.1684
     19 O          -4.8785    3.1097   22.6886 O.2     1  UNL1       -0.1684
     20 C          -5.3131    4.8573   23.0985 C.ar    1  UNL1        0.1059
     21 C          -5.4561    6.3124   23.4335 C.ar    1  UNL1        0.0192
     22 C          -6.7925    6.8613   23.8370 C.ar    1  UNL1        0.0127
     23 C          -7.9859    5.9551   23.9055 C.ar    1  UNL1        0.0578
     24 CL         -9.3222    6.5040   24.3091 Cl      1  UNL1       -0.0822
     25 C          -7.8428    4.5000   23.5706 C.ar    1  UNL1        0.0127
     26 C          -6.5065    3.9511   23.1670 C.ar    1  UNL1        0.0192
     27 C           0.4135    2.6060   20.0347 C.3     1  UNL1        0.0550
     28 C           0.4919    1.4176   19.1228 C.3     1  UNL1        0.1534
     29 S           1.2316    0.1869   19.5565 S.O2    1  UNL1       -0.0085
     30 O           2.3107    0.4835   18.5578 O.2     1  UNL1       -0.1729
     31 O           0.1524   -0.1097   20.5552 O.2     1  UNL1       -0.1729
     32 C           1.9712   -1.0439   19.9902 C.3     1  UNL1        0.1681
     33 C           3.4415   -1.1691   19.7212 C.3     1  UNL1        0.0978
     34 C           3.3476   -3.7324   19.3077 C.3     1  UNL1        0.0897
     35 N           3.9788   -2.3968   19.0472 N.3     1  UNL1       -0.2688
     36 C           5.1472   -2.2890   18.1129 C.3     1  UNL1        0.0897
@<TRIPOS>BOND
     1    34    35    1
     2    35    36    1
     3    35    33    1
     4    33    32    1
     5    32    29    1
     6    29    30    2
     7    29    31    2
     8    29    28    1
     9    28    27    1
    10     1    27    1
    11     1     2    1
    12     2     3    1
    13     3     4    1
    14     4     5    1
    15     5    17    1
    16    17    18    2
    17    17    19    2
    18    17    20    1
    19    20    21   ar
    20    21    22   ar
    21    22    23   ar
    22    23    24    1
    23    23    25   ar
    24    25    26   ar
    25     5     6    1
    26     6     7   ar
    27     7     8    1
    28     7     9   ar
    29     9    10   ar
    30    10    11   ar
    31    11    12    1
    32    11    13   ar
    33    13    14    1
    34    14    15    1
    35    16    15    1
    36    16     1    1
    37    16     5    1
    38    26    20   ar
    39    13     6   ar
@<TRIPOS>MOLECULE
*****
 36 39 0 0 0
SMALL
GASTEIGER

@<TRIPOS>ATOM
      1 C           7.9538   -5.1471   23.2832 C.3     1  UNL1        0.1225
      2 O           8.1584   -5.2603   21.8016 O.3     1  UNL1       -0.3559
      3 C           7.3799   -4.3818   20.8677 C.3     1  UNL1        0.1441
      4 C           6.3968   -3.3902   21.4154 C.3     1  UNL1        0.0589
      5 C           6.1921   -3.2770   22.8970 C.3     1  UNL1        0.1466
      6 C           5.2089   -2.2854   23.4448 C.ar    1  UNL1        0.0618
      7 C           4.4304   -1.4069   22.5109 C.ar    1  UNL1        0.1407
      8 F           4.3829   -1.2555   21.0193 F       1  UNL1       -0.2043
      9 C           3.4472   -0.4153   23.0586 C.ar    1  UNL1        0.0319
     10 C           3.2425   -0.3021   24.5403 C.ar    1  UNL1        0.0351
     11 C           4.0210   -1.1806   25.4742 C.ar    1  UNL1        0.1737
     12 F           3.8163   -1.0675   26.9558 F       1  UNL1       -0.2010
     13 C           5.0042   -2.1723   24.9264 C.ar    1  UNL1        0.1655
     14 O           5.7827   -3.0508   25.8603 O.3     1  UNL1       -0.4732
     15 C           6.7659   -4.0424   25.3126 C.3     1  UNL1        0.2098
     16 C           6.9706   -4.1555   23.8309 C.3     1  UNL1        0.0957
     17 S           5.4136   -2.3986   21.9631 S.O2    1  UNL1        0.0094
     18 O           5.6702   -1.6524   21.8499 O.2     1  UNL1       -0.1684
     19 O           4.2929   -3.2757   21.4892 O.2     1  UNL1       -0.1684
     20 C           4.6351   -1.5201   21.0292 C.ar    1  UNL1        0.1059
     21 C           5.2176   -0.2186   20.5633 C.ar    1  UNL1        0.0192
     22 C           4.4391    0.6599   19.6293 C.ar    1  UNL1        0.0127
     23 C           3.0781    0.2369   19.1613 C.ar    1  UNL1        0.0578
     24 CL          2.2996    1.1154   18.2274 Cl      1  UNL1       -0.0822
     25 C           2.4957   -1.0645   19.6272 C.ar    1  UNL1        0.0127
     26 C           3.2742   -1.9430   20.5611 C.ar    1  UNL1        0.0192
     27 C           8.7323   -6.0256   24.2171 C.3     1  UNL1        0.0550
     28 C           8.1080   -7.2730   24.7688 C.3     1  UNL1        0.1534
     29 S           8.1456   -7.5413   26.2441 S.O2    1  UNL1       -0.0085
     30 O           6.9506   -8.4382   26.1114 O.2     1  UNL1       -0.1729
     31 O           9.3405   -6.6444   26.3768 O.2     1  UNL1       -0.1729
     32 C           8.1831   -7.8096   27.7194 C.3     1  UNL1        0.1681
     33 C           8.6219   -6.7324   28.6667 C.3     1  UNL1        0.0978
     34 C           7.7180   -5.9136   30.9607 C.3     1  UNL1        0.0897
     35 N           7.6028   -5.9762   29.4664 N.3     1  UNL1       -0.2688
     36 C           6.4686   -5.2826   28.7720 C.3     1  UNL1        0.0897
@<TRIPOS>BOND
     1    34    35    1
     2    35    36    1
     3    35    33    1
     4    33    32    1
     5    32    29    1
     6    29    30    2
     7    29    31    2
     8    29    28    1
     9    28    27    1
    10     1    27    1
    11     1     2    1
    12     2     3    1
    13     3     4    1
    14     4     5    1
    15     5    17    1
    16    17    18    2
    17    17    19    2
    18    17    20    1
    19    20    21   ar
    20    21    22   ar
    21    22    23   ar
    22    23    24    1
    23    23    25   ar
    24    25    26   ar
    25     5     6    1
    26     6     7   ar
    27     7     8    1
    28     7     9   ar
    29     9    10   ar
    30    10    11   ar
    31    11    12    1
    32    11    13   ar
    33    13    14    1
    34    14    15    1
    35    16    15    1
    36    16     1    1
    37    16     5    1
    38    26    20   ar
    39    13     6   ar
