@<TRIPOS>MOLECULE
*****
 29 31 0 0 0
SMALL
GASTEIGER

@<TRIPOS>ATOM
      1 C          -9.8853  -18.3100   22.7553 C.3     1  UNL1        0.0373
      2 C         -10.6130  -19.0125   21.6477 C.3     1  UNL1        0.0075
      3 C          -9.8552  -19.5237   20.4584 C.3     1  UNL1        0.0219
      4 C          -8.3697  -19.3324   20.3767 C.3     1  UNL1        0.0950
      5 N          -7.6420  -18.6298   21.4843 N.am    1  UNL1       -0.2637
      6 C          -6.1564  -18.4384   21.4027 C.2     1  UNL1        0.3077
      7 O          -5.4288  -17.7359   22.5104 O.2     1  UNL1       -0.2522
      8 N          -5.3987  -18.9497   20.2134 N.am    1  UNL1       -0.2681
      9 C          -8.3998  -18.1186   22.6736 C.3     1  UNL1        0.0989
     10 H          -5.8763  -19.4108   19.4864 H       1  UNL1        0.1564
     11 C          -3.9132  -18.7582   20.1318 C.ar    1  UNL1        0.0516
     12 C          -3.0164  -19.4100   21.1424 C.ar    1  UNL1        0.0156
     13 C          -1.5310  -19.2187   21.0609 C.ar    1  UNL1        0.0127
     14 C          -0.9422  -18.3756   19.9689 C.ar    1  UNL1        0.0578
     15 CL          0.5434  -18.1842   19.8873 Cl      1  UNL1       -0.0822
     16 C          -1.8389  -17.7238   18.9583 C.ar    1  UNL1        0.0127
     17 C          -3.3244  -17.9152   19.0399 C.ar    1  UNL1        0.0156
     18 C         -11.2872  -18.2501   23.2856 C.ar    1  UNL1       -0.0212
     19 C         -11.6115  -18.8576   24.6182 C.ar    1  UNL1       -0.0042
     20 C         -13.0134  -18.7977   25.1484 C.ar    1  UNL1       -0.0003
     21 C         -14.0909  -18.1303   24.3461 C.ar    1  UNL1       -0.0000
     22 C         -13.7665  -17.5229   23.0136 C.ar    1  UNL1       -0.0003
     23 C         -12.3647  -17.5828   22.4833 C.ar    1  UNL1       -0.0042
     24 C          -9.6445  -17.5866   24.0471 C.3     1  UNL1        0.0061
     25 C          -8.9958  -16.2342   24.0397 C.3     1  UNL1        0.0063
     26 C          -8.5895  -15.5901   25.3321 C.3     1  UNL1        0.0417
     27 O          -6.2299  -14.8092   24.5756 O.co2   1  UNL1       -0.5492
     28 C          -7.1377  -15.3636   25.6332 C.2     1  UNL1        0.0503
     29 O          -6.5935  -15.6914   26.9921 O.co2   1  UNL1       -0.5492
@<TRIPOS>UNITY_ATOM_ATTR
27 1
charge -1
@<TRIPOS>BOND
     1    27    28   ar
     2    28    29   ar
     3    28    26    1
     4    26    25    1
     5    25    24    1
     6    24     1    1
     7     1    18    1
     8    18    19   ar
     9    19    20   ar
    10    20    21   ar
    11    21    22   ar
    12    22    23   ar
    13     1     2    1
    14     2     3    1
    15     3     4    1
    16     4     5    1
    17     5     6   am
    18     6     7    2
    19     6     8   am
    20     8    11    1
    21    11    12   ar
    22    12    13   ar
    23    13    14   ar
    24    14    15    1
    25    14    16   ar
    26    16    17   ar
    27     5     9    1
    28     9     1    1
    29    23    18   ar
    30    17    11   ar
    31     8    10    1
@<TRIPOS>MOLECULE
*****
 29 31 0 0 0
SMALL
GASTEIGER

@<TRIPOS>ATOM
      1 C          -9.9400  -18.4759   22.7360 C.3     1  UNL1        0.0373
      2 C         -10.6764  -19.1083   21.5925 C.3     1  UNL1        0.0075
      3 C          -9.9252  -19.5633   20.3766 C.3     1  UNL1        0.0219
      4 C          -8.4374  -19.3859   20.3042 C.3     1  UNL1        0.0950
      5 N          -7.7010  -18.7535   21.4477 N.am    1  UNL1       -0.2637
      6 C          -6.2133  -18.5761   21.3753 C.2     1  UNL1        0.3077
      7 O          -5.4769  -17.9437   22.5189 O.2     1  UNL1       -0.2522
      8 N          -5.4620  -19.0311   20.1594 N.am    1  UNL1       -0.2681
      9 C          -8.4523  -18.2985   22.6637 C.3     1  UNL1        0.0989
     10 H          -5.9453  -19.4462   19.4088 H       1  UNL1        0.1564
     11 C          -3.9743  -18.8537   20.0871 C.ar    1  UNL1        0.0516
     12 C          -3.3733  -17.9884   19.0192 C.ar    1  UNL1        0.0156
     13 C          -1.8857  -17.8109   18.9469 C.ar    1  UNL1        0.0127
     14 C          -0.9989  -18.4987   19.9423 C.ar    1  UNL1        0.0578
     15 CL          0.4888  -18.3212   19.8699 Cl      1  UNL1       -0.0822
     16 C          -1.5999  -19.3639   21.0100 C.ar    1  UNL1        0.0127
     17 C          -3.0877  -19.5414   21.0824 C.ar    1  UNL1        0.0156
     18 C         -11.3410  -18.4279   23.2700 C.ar    1  UNL1       -0.0212
     19 C         -11.6279  -18.8954   24.6661 C.ar    1  UNL1       -0.0042
     20 C         -13.0288  -18.8473   25.2000 C.ar    1  UNL1       -0.0003
     21 C         -14.1428  -18.3318   24.3378 C.ar    1  UNL1       -0.0000
     22 C         -13.8559  -17.8643   22.9418 C.ar    1  UNL1       -0.0003
     23 C         -12.4550  -17.9124   22.4079 C.ar    1  UNL1       -0.0042
     24 C          -9.6901  -17.8268   24.0651 C.3     1  UNL1        0.0061
     25 C          -9.2264  -16.4017   24.1283 C.3     1  UNL1        0.0063
     26 C          -9.7694  -15.3926   23.1604 C.3     1  UNL1        0.0417
     27 O         -10.2451  -15.6289   20.6172 O.co2   1  UNL1       -0.5492
     28 C          -9.2841  -15.3779   21.7412 C.2     1  UNL1        0.0503
     29 O          -7.8376  -15.1122   21.4460 O.co2   1  UNL1       -0.5492
@<TRIPOS>UNITY_ATOM_ATTR
27 1
charge -1
@<TRIPOS>BOND
     1    27    28   ar
     2    28    29   ar
     3    28    26    1
     4    26    25    1
     5    25    24    1
     6    24     1    1
     7     1    18    1
     8    18    19   ar
     9    19    20   ar
    10    20    21   ar
    11    21    22   ar
    12    22    23   ar
    13     1     2    1
    14     2     3    1
    15     3     4    1
    16     4     5    1
    17     5     6   am
    18     6     7    2
    19     6     8   am
    20     8    11    1
    21    11    12   ar
    22    12    13   ar
    23    13    14   ar
    24    14    15    1
    25    14    16   ar
    26    16    17   ar
    27     5     9    1
    28     9     1    1
    29    23    18   ar
    30    17    11   ar
    31     8    10    1
@<TRIPOS>MOLECULE
*****
 29 31 0 0 0
SMALL
GASTEIGER

@<TRIPOS>ATOM
      1 C          -4.2488  -18.2293   21.3336 C.3     1  UNL1        0.0373
      2 C          -4.2211  -19.1743   20.1691 C.3     1  UNL1        0.0075
      3 C          -5.4776  -19.8715   19.7390 C.3     1  UNL1        0.0219
      4 C          -6.7619  -19.6236   20.4734 C.3     1  UNL1        0.0950
      5 N          -6.7896  -18.6786   21.6379 N.am    1  UNL1       -0.2637
      6 C          -8.0739  -18.4308   22.3723 C.2     1  UNL1        0.3077
      7 O          -8.1015  -17.4857   23.5368 O.2     1  UNL1       -0.2522
      8 N          -9.3304  -19.1280   21.9421 N.am    1  UNL1       -0.2681
      9 C          -5.5331  -17.9814   22.0680 C.3     1  UNL1        0.0989
     10 H          -9.3122  -19.7483   21.1778 H       1  UNL1        0.1564
     11 C         -10.6145  -18.8801   22.6765 C.ar    1  UNL1        0.0516
     12 C         -10.7863  -19.3853   24.0785 C.ar    1  UNL1        0.0156
     13 C         -12.0703  -19.1374   24.8129 C.ar    1  UNL1        0.0127
     14 C         -13.1829  -18.3844   24.1456 C.ar    1  UNL1        0.0578
     15 CL        -14.4670  -18.1365   24.8801 Cl      1  UNL1       -0.0822
     16 C         -13.0112  -17.8792   22.7437 C.ar    1  UNL1        0.0127
     17 C         -11.7270  -18.1271   22.0092 C.ar    1  UNL1        0.0156
     18 C          -2.7993  -18.1379   20.9584 C.ar    1  UNL1       -0.0212
     19 C          -2.0292  -19.3829   20.6319 C.ar    1  UNL1       -0.0042
     20 C          -0.5798  -19.2915   20.2567 C.ar    1  UNL1       -0.0003
     21 C           0.0995  -17.9550   20.2081 C.ar    1  UNL1       -0.0000
     22 C          -0.6707  -16.7099   20.5346 C.ar    1  UNL1       -0.0003
     23 C          -2.1201  -16.8014   20.9098 C.ar    1  UNL1       -0.0042
     24 C          -3.7731  -17.2525   22.3679 C.3     1  UNL1        0.0061
     25 C          -4.6215  -16.9602   23.5698 C.3     1  UNL1        0.0063
     26 C          -4.8462  -15.5416   24.0023 C.3     1  UNL1        0.0417
     27 O          -5.7003  -15.6127   26.4550 O.co2   1  UNL1       -0.5492
     28 C          -5.9022  -15.2261   25.0198 C.2     1  UNL1        0.0503
     29 O          -7.1602  -14.5238   24.6021 O.co2   1  UNL1       -0.5492
@<TRIPOS>UNITY_ATOM_ATTR
27 1
charge -1
@<TRIPOS>BOND
     1    27    28   ar
     2    28    29   ar
     3    28    26    1
     4    26    25    1
     5    25    24    1
     6    24     1    1
     7     1    18    1
     8    18    19   ar
     9    19    20   ar
    10    20    21   ar
    11    21    22   ar
    12    22    23   ar
    13     1     2    1
    14     2     3    1
    15     3     4    1
    16     4     5    1
    17     5     6   am
    18     6     7    2
    19     6     8   am
    20     8    11    1
    21    11    12   ar
    22    12    13   ar
    23    13    14   ar
    24    14    15    1
    25    14    16   ar
    26    16    17   ar
    27     5     9    1
    28     9     1    1
    29    23    18   ar
    30    17    11   ar
    31     8    10    1
