@<TRIPOS>MOLECULE
*****
 36 39 0 0 0
SMALL
GASTEIGER

@<TRIPOS>ATOM
      1 C          -1.2035    5.3564   21.2467 C.2     1  UNL1        0.2491
      2 O          -1.5421    6.3224   20.1503 O.2     1  UNL1       -0.2699
      3 N          -1.6867    5.6085   22.6441 N.am    1  UNL1       -0.2742
      4 C          -2.5085    6.8267   22.9452 C.3     1  UNL1        0.1152
      5 C          -1.3481    4.6425   23.7406 C.3     1  UNL1        0.0972
      6 C          -2.2500    3.5743   24.2842 C.3     1  UNL1        0.0431
      7 C          -1.5075    2.8467   25.3655 C.3     1  UNL1        0.0968
      8 N          -0.1466    3.4652   25.4902 N.am    1  UNL1       -0.2623
      9 C           0.9272    3.0473   26.4505 C.2     1  UNL1        0.3073
     10 O           2.2451    3.7634   26.4599 O.2     1  UNL1       -0.2523
     11 N           0.6830    1.9132   27.4015 N.am    1  UNL1       -0.2626
     12 C          -0.5778    1.1073   27.5074 C.3     1  UNL1        0.0964
     13 C          -0.3833    0.0820   28.5848 C.3     1  UNL1        0.0390
     14 C           0.9976    0.2541   29.1447 C.3     1  UNL1        0.0759
     15 C           1.6566    1.3858   28.4133 C.3     1  UNL1        0.1106
     16 C          -0.0481    4.5751   24.4860 C.3     1  UNL1        0.1147
     17 N           1.6118   -0.5622   30.2431 N.3     1  UNL1       -0.2950
     18 H           1.9829   -1.4076   29.8094 H       1  UNL1        0.1233
     19 C           2.7147    0.0153   31.0797 C.3     1  UNL1        0.1007
     20 C           2.4156    1.1046   32.0667 C.3     1  UNL1        0.1542
     21 O           0.9940    1.4917   32.3485 O.3     1  UNL1       -0.3805
     22 H           0.6012    1.8819   31.5520 H       1  UNL1        0.2105
     23 C           1.2619    1.7018   20.3435 C.ar    1  UNL1        0.0000
     24 C          -0.2347    1.6077   20.3754 C.ar    1  UNL1        0.0001
     25 C          -1.0566    2.8259   20.6764 C.ar    1  UNL1        0.0045
     26 C          -0.3817    4.1382   20.9456 C.ar    1  UNL1        0.0536
     27 C           1.1150    4.2322   20.9138 C.ar    1  UNL1        0.0045
     28 C           1.9368    3.0140   20.6128 C.ar    1  UNL1        0.0001
     29 C           3.7273   -1.9528   19.4404 C.ar    1  UNL1       -0.0222
     30 C           3.4990   -0.9204   18.3765 C.ar    1  UNL1       -0.0043
     31 C           2.6772    0.2978   18.6775 C.ar    1  UNL1       -0.0003
     32 C           2.0837    0.4836   20.0425 C.ar    1  UNL1       -0.0000
     33 C           2.3120   -0.5488   21.1064 C.ar    1  UNL1       -0.0003
     34 C           3.1338   -1.7670   20.8053 C.ar    1  UNL1       -0.0043
     35 C           3.8955   -4.5195   19.0746 C.3     1  UNL1        0.0050
     36 C           4.5491   -3.1710   19.1393 C.3     1  UNL1        0.0264
@<TRIPOS>BOND
     1    35    36    1
     2    36    29    1
     3    29    30   ar
     4    30    31   ar
     5    31    32   ar
     6    32    23    1
     7    23    24   ar
     8    24    25   ar
     9    25    26   ar
    10    26     1    1
    11     1     2    2
    12     1     3   am
    13     3     4    1
    14     5     3    1
    15     5     6    1
    16     6     7    1
    17     7     8    1
    18     8     9   am
    19     9    10    2
    20     9    11   am
    21    11    12    1
    22    12    13    1
    23    13    14    1
    24    14    17    1
    25    17    19    1
    26    19    20    1
    27    20    21    1
    28    14    15    1
    29     8    16    1
    30    26    27   ar
    31    27    28   ar
    32    32    33   ar
    33    33    34   ar
    34    34    29   ar
    35    28    23   ar
    36    16     5    1
    37    15    11    1
    38    17    18    1
    39    21    22    1
@<TRIPOS>MOLECULE
*****
 36 39 0 0 0
SMALL
GASTEIGER

@<TRIPOS>ATOM
      1 C          -0.0606    5.4028   18.6434 C.2     1  UNL1        0.2491
      2 O          -0.1771    6.1957   17.3755 O.2     1  UNL1       -0.2699
      3 N          -0.6700    5.9225   19.9117 N.am    1  UNL1       -0.2742
      4 C          -1.3960    7.2352   19.9120 C.3     1  UNL1        0.1152
      5 C          -0.5535    5.1296   21.1797 C.3     1  UNL1        0.0972
      6 C          -1.6103    4.2392   21.7631 C.3     1  UNL1        0.0431
      7 C          -1.0696    3.6473   23.0308 C.3     1  UNL1        0.0968
      8 N           0.3214    4.1719   23.2310 N.am    1  UNL1       -0.2623
      9 C           1.2332    3.8388   24.3745 C.2     1  UNL1        0.3073
     10 O           2.6044    4.4434   24.4410 O.2     1  UNL1       -0.2523
     11 N           0.7740    2.9011   25.4515 N.am    1  UNL1       -0.2626
     12 C          -0.5624    2.2231   25.5193 C.3     1  UNL1        0.0964
     13 C          -0.5919    1.3798   26.7594 C.3     1  UNL1        0.0390
     14 C           0.7262    1.5365   27.4580 C.3     1  UNL1        0.0759
     15 C           1.5703    2.4767   26.6496 C.3     1  UNL1        0.1106
     16 C           0.6403    5.0880   22.0869 C.3     1  UNL1        0.1147
     17 N           1.1294    0.8701   28.7398 N.3     1  UNL1       -0.2950
     18 H           0.2941    0.8245   29.3235 H       1  UNL1        0.1233
     19 C           1.7162   -0.5101   28.7153 C.3     1  UNL1        0.1007
     20 C           3.0085   -0.7629   27.9968 C.3     1  UNL1        0.1542
     21 O           3.2043   -2.0384   27.2318 O.3     1  UNL1       -0.3805
     22 H           3.2121   -2.7872   27.8483 H       1  UNL1        0.2105
     23 C           2.1173    1.4649   18.6426 C.ar    1  UNL1        0.0000
     24 C           2.8853    2.7467   18.7739 C.ar    1  UNL1        0.0001
     25 C           2.1593    4.0593   18.7741 C.ar    1  UNL1        0.0045
     26 C           0.6654    4.0902   18.6432 C.ar    1  UNL1        0.0536
     27 C          -0.1026    2.8084   18.5119 C.ar    1  UNL1        0.0045
     28 C           0.6234    1.4958   18.5116 C.ar    1  UNL1        0.0001
     29 C           4.2952   -2.4729   18.6417 C.ar    1  UNL1       -0.0222
     30 C           4.4531   -1.5283   17.4873 C.ar    1  UNL1       -0.0043
     31 C           3.7272   -0.2157   17.4876 C.ar    1  UNL1       -0.0003
     32 C           2.8433    0.1523   18.6423 C.ar    1  UNL1       -0.0000
     33 C           2.6854   -0.7923   19.7967 C.ar    1  UNL1       -0.0003
     34 C           3.4114   -2.1049   19.7964 C.ar    1  UNL1       -0.0043
     35 C           4.2879   -5.0482   18.9848 C.3     1  UNL1        0.0050
     36 C           5.0212   -3.7855   18.6414 C.3     1  UNL1        0.0264
@<TRIPOS>BOND
     1    35    36    1
     2    36    29    1
     3    29    30   ar
     4    30    31   ar
     5    31    32   ar
     6    32    23    1
     7    23    24   ar
     8    24    25   ar
     9    25    26   ar
    10    26     1    1
    11     1     2    2
    12     1     3   am
    13     3     4    1
    14     5     3    1
    15     5     6    1
    16     6     7    1
    17     7     8    1
    18     8     9   am
    19     9    10    2
    20     9    11   am
    21    11    12    1
    22    12    13    1
    23    13    14    1
    24    14    17    1
    25    17    19    1
    26    19    20    1
    27    20    21    1
    28    14    15    1
    29     8    16    1
    30    26    27   ar
    31    27    28   ar
    32    32    33   ar
    33    33    34   ar
    34    34    29   ar
    35    28    23   ar
    36    16     5    1
    37    15    11    1
    38    17    18    1
    39    21    22    1
@<TRIPOS>MOLECULE
*****
 36 39 0 0 0
SMALL
GASTEIGER

@<TRIPOS>ATOM
      1 C           0.0646    4.7368   22.6360 C.2     1  UNL1        0.2491
      2 O          -0.4999    5.6090   21.5541 O.2     1  UNL1       -0.2699
      3 N          -0.0311    5.1645   24.0705 N.am    1  UNL1       -0.2742
      4 C          -0.6915    6.4643   24.4232 C.3     1  UNL1        0.1152
      5 C           0.5334    4.2922   25.1525 C.3     1  UNL1        0.0972
      6 C           1.9251    4.3651   25.7075 C.3     1  UNL1        0.0431
      7 C           2.0572    3.3120   26.7674 C.3     1  UNL1        0.0968
      8 N           0.7471    2.5881   26.8674 N.am    1  UNL1       -0.2623
      9 C           0.4339    1.4571   27.8016 C.2     1  UNL1        0.3073
     10 O          -0.9280    0.8285   27.7880 O.2     1  UNL1       -0.2523
     11 N           1.4825    0.9547   28.7492 N.am    1  UNL1       -0.2626
     12 C           2.8813    1.4814   28.8763 C.3     1  UNL1        0.0964
     13 C           3.5796    0.6896   29.9418 C.3     1  UNL1        0.0390
     14 C           2.6125   -0.3264   30.4733 C.3     1  UNL1        0.0759
     15 C           1.3164   -0.1625   29.7362 C.3     1  UNL1        0.1106
     16 C          -0.1945    3.1940   25.8694 C.3     1  UNL1        0.1147
     17 N           2.8923   -1.3300   31.5524 N.3     1  UNL1       -0.2950
     18 H           2.8668   -2.2500   31.1126 H       1  UNL1        0.1233
     19 C           4.1727   -1.2574   32.3304 C.3     1  UNL1        0.1007
     20 C           4.5905   -2.4089   33.1961 C.3     1  UNL1        0.1542
     21 O           3.5749   -3.4183   33.6432 O.3     1  UNL1       -0.3805
     22 H           2.9357   -2.9931   34.2361 H       1  UNL1        0.2105
     23 C           2.0457    0.8373   21.5780 C.ar    1  UNL1        0.0000
     24 C           0.5638    0.8886   21.8044 C.ar    1  UNL1        0.0001
     25 C          -0.0966    2.1884   22.1571 C.ar    1  UNL1        0.0045
     26 C           0.7250    3.4370   22.2833 C.ar    1  UNL1        0.0536
     27 C           2.2069    3.3858   22.0570 C.ar    1  UNL1        0.0045
     28 C           2.8672    2.0859   21.7043 C.ar    1  UNL1        0.0001
     29 C           4.0268   -3.0622   20.5200 C.ar    1  UNL1       -0.0222
     30 C           3.2039   -2.3371   19.4968 C.ar    1  UNL1       -0.0043
     31 C           2.5436   -1.0372   19.8494 C.ar    1  UNL1       -0.0003
     32 C           2.7060   -0.4625   21.2254 C.ar    1  UNL1       -0.0000
     33 C           3.5289   -1.1876   22.2486 C.ar    1  UNL1       -0.0003
     34 C           4.1892   -2.4874   21.8960 C.ar    1  UNL1       -0.0043
     35 C           4.6203   -4.8800   18.7613 C.3     1  UNL1        0.0050
     36 C           4.6871   -4.3620   20.1674 C.3     1  UNL1        0.0264
@<TRIPOS>BOND
     1    35    36    1
     2    36    29    1
     3    29    30   ar
     4    30    31   ar
     5    31    32   ar
     6    32    23    1
     7    23    24   ar
     8    24    25   ar
     9    25    26   ar
    10    26     1    1
    11     1     2    2
    12     1     3   am
    13     3     4    1
    14     5     3    1
    15     5     6    1
    16     6     7    1
    17     7     8    1
    18     8     9   am
    19     9    10    2
    20     9    11   am
    21    11    12    1
    22    12    13    1
    23    13    14    1
    24    14    17    1
    25    17    19    1
    26    19    20    1
    27    20    21    1
    28    14    15    1
    29     8    16    1
    30    26    27   ar
    31    27    28   ar
    32    32    33   ar
    33    33    34   ar
    34    34    29   ar
    35    28    23   ar
    36    16     5    1
    37    15    11    1
    38    17    18    1
    39    21    22    1
@<TRIPOS>MOLECULE
*****
 36 39 0 0 0
SMALL
GASTEIGER

@<TRIPOS>ATOM
      1 C           0.4318    5.4355   18.1214 C.2     1  UNL1        0.2491
      2 O           0.3351    6.1132   16.7867 O.2     1  UNL1       -0.2699
      3 N          -0.1073    6.1120   19.3468 N.am    1  UNL1       -0.2742
      4 C          -0.7433    7.4662   19.2375 C.3     1  UNL1        0.1152
      5 C          -0.0106    5.4344   20.6816 C.3     1  UNL1        0.0972
      6 C           1.2506    5.1848   21.4543 C.3     1  UNL1        0.0431
      7 C           0.8826    4.4836   22.7282 C.3     1  UNL1        0.0968
      8 N          -0.6061    4.2999   22.7428 N.am    1  UNL1       -0.2623
      9 C          -1.4028    3.6437   23.8313 C.2     1  UNL1        0.3073
     10 O          -2.8934    3.5319   23.7063 O.2     1  UNL1       -0.2523
     11 N          -0.7090    3.0994   25.0447 N.am    1  UNL1       -0.2626
     12 C           0.7673    3.1382   25.3078 C.3     1  UNL1        0.0964
     13 C           1.0191    2.4836   26.6337 C.3     1  UNL1        0.0390
     14 C          -0.3015    2.0401   27.1899 C.3     1  UNL1        0.0759
     15 C          -1.3695    2.4208   26.2079 C.3     1  UNL1        0.1106
     16 C          -1.1580    4.8875   21.4780 C.3     1  UNL1        0.1147
     17 N          -0.5164    1.3392   28.4985 N.3     1  UNL1       -0.2950
     18 H          -1.4950    1.0527   28.5219 H       1  UNL1        0.1233
     19 C           0.2979    0.1274   28.8428 C.3     1  UNL1        0.1007
     20 C           1.4897    0.2561   29.7446 C.3     1  UNL1        0.1542
     21 O           2.0091   -0.9455   30.4772 O.3     1  UNL1       -0.3805
     22 H           1.3482   -1.2412   31.1228 H       1  UNL1        0.2105
     23 C           2.3397    1.3732   18.4493 C.ar    1  UNL1        0.0000
     24 C           0.8465    1.4970   18.3782 C.ar    1  UNL1        0.0001
     25 C           0.2106    2.8511   18.2689 C.ar    1  UNL1        0.0045
     26 C           1.0678    4.0814   18.2307 C.ar    1  UNL1        0.0536
     27 C           2.5609    3.9576   18.3019 C.ar    1  UNL1        0.0045
     28 C           3.1969    2.6035   18.4112 C.ar    1  UNL1        0.0001
     29 C           4.2475   -2.6892   18.7772 C.ar    1  UNL1       -0.0222
     30 C           3.1978   -2.2717   19.7640 C.ar    1  UNL1       -0.0043
     31 C           2.5618   -0.9176   19.6547 C.ar    1  UNL1       -0.0003
     32 C           2.9756    0.0191   18.5586 C.ar    1  UNL1       -0.0000
     33 C           4.0253   -0.3984   17.5719 C.ar    1  UNL1       -0.0003
     34 C           4.6612   -1.7525   17.6812 C.ar    1  UNL1       -0.0043
     35 C           4.0475   -5.2384   19.2371 C.3     1  UNL1        0.0050
     36 C           4.8834   -4.0433   18.8865 C.3     1  UNL1        0.0264
@<TRIPOS>BOND
     1    35    36    1
     2    36    29    1
     3    29    30   ar
     4    30    31   ar
     5    31    32   ar
     6    32    23    1
     7    23    24   ar
     8    24    25   ar
     9    25    26   ar
    10    26     1    1
    11     1     2    2
    12     1     3   am
    13     3     4    1
    14     5     3    1
    15     5     6    1
    16     6     7    1
    17     7     8    1
    18     8     9   am
    19     9    10    2
    20     9    11   am
    21    11    12    1
    22    12    13    1
    23    13    14    1
    24    14    17    1
    25    17    19    1
    26    19    20    1
    27    20    21    1
    28    14    15    1
    29     8    16    1
    30    26    27   ar
    31    27    28   ar
    32    32    33   ar
    33    33    34   ar
    34    34    29   ar
    35    28    23   ar
    36    16     5    1
    37    15    11    1
    38    17    18    1
    39    21    22    1
@<TRIPOS>MOLECULE
*****
 36 39 0 0 0
SMALL
GASTEIGER

@<TRIPOS>ATOM
      1 C           5.3562   -0.6807   19.3872 C.2     1  UNL1        0.2491
      2 O           5.1429   -0.0088   18.0632 O.2     1  UNL1       -0.2699
      3 N           6.4267   -1.7207   19.5365 N.am    1  UNL1       -0.2742
      4 C           7.2838   -2.0888   18.3618 C.3     1  UNL1        0.1152
      5 C           6.6401   -2.3928   20.8605 C.3     1  UNL1        0.0972
      6 C           5.8995   -3.5939   21.3691 C.3     1  UNL1        0.0431
      7 C           6.4333   -3.9250   22.7313 C.3     1  UNL1        0.0968
      8 N           7.5038   -2.9285   23.0645 N.am    1  UNL1       -0.2623
      9 C           8.3056   -2.8864   24.3315 C.2     1  UNL1        0.3073
     10 O           9.3479   -1.8251   24.5244 O.2     1  UNL1       -0.2523
     11 N           8.0652   -3.9056   25.4055 N.am    1  UNL1       -0.2626
     12 C           7.0624   -5.0201   25.3548 C.3     1  UNL1        0.0964
     13 C           7.1628   -5.7925   26.6366 C.3     1  UNL1        0.0390
     14 C           8.2275   -5.1554   27.4796 C.3     1  UNL1        0.0759
     15 C           8.7852   -3.9893   26.7187 C.3     1  UNL1        0.1106
     16 C           7.6316   -1.9815   21.9083 C.3     1  UNL1        0.1147
     17 N           8.6588   -5.6055   28.8439 N.3     1  UNL1       -0.2950
     18 H           9.0243   -4.7828   29.3235 H       1  UNL1        0.1233
     19 C           7.6674   -6.2428   29.7716 C.3     1  UNL1        0.1007
     20 C           7.0939   -5.4553   30.9123 C.3     1  UNL1        0.1542
     21 O           6.5552   -6.1661   32.1185 O.3     1  UNL1       -0.3805
     22 H           5.7728   -6.6815   31.8674 H       1  UNL1        0.2105
     23 C           2.7848    0.4236   22.9111 C.ar    1  UNL1        0.0000
     24 C           2.3164   -0.6171   21.9377 C.ar    1  UNL1        0.0001
     25 C           3.1735   -0.9851   20.7630 C.ar    1  UNL1        0.0045
     26 C           4.4991   -0.3126   20.5618 C.ar    1  UNL1        0.0536
     27 C           4.9675    0.7280   21.5353 C.ar    1  UNL1        0.0045
     28 C           4.1104    1.0961   22.7099 C.ar    1  UNL1        0.0001
     29 C           0.2134    1.5278   26.4351 C.ar    1  UNL1       -0.0222
     30 C          -0.3286    1.6546   25.0422 C.ar    1  UNL1       -0.0043
     31 C           0.5286    1.2865   23.8675 C.ar    1  UNL1       -0.0003
     32 C           1.9277    0.7916   24.0858 C.ar    1  UNL1       -0.0000
     33 C           2.4696    0.6649   25.4787 C.ar    1  UNL1       -0.0003
     34 C           1.6124    1.0330   26.6533 C.ar    1  UNL1       -0.0043
     35 C          -1.1881    0.8236   28.5063 C.3     1  UNL1        0.0050
     36 C          -0.6438    1.8959   27.6098 C.3     1  UNL1        0.0264
@<TRIPOS>BOND
     1    35    36    1
     2    36    29    1
     3    29    30   ar
     4    30    31   ar
     5    31    32   ar
     6    32    23    1
     7    23    24   ar
     8    24    25   ar
     9    25    26   ar
    10    26     1    1
    11     1     2    2
    12     1     3   am
    13     3     4    1
    14     5     3    1
    15     5     6    1
    16     6     7    1
    17     7     8    1
    18     8     9   am
    19     9    10    2
    20     9    11   am
    21    11    12    1
    22    12    13    1
    23    13    14    1
    24    14    17    1
    25    17    19    1
    26    19    20    1
    27    20    21    1
    28    14    15    1
    29     8    16    1
    30    26    27   ar
    31    27    28   ar
    32    32    33   ar
    33    33    34   ar
    34    34    29   ar
    35    28    23   ar
    36    16     5    1
    37    15    11    1
    38    17    18    1
    39    21    22    1
@<TRIPOS>MOLECULE
*****
 36 39 0 0 0
SMALL
GASTEIGER

@<TRIPOS>ATOM
      1 C           4.8630    0.4170   35.6195 C.2     1  UNL1        0.2491
      2 O           5.2606    0.1749   37.0454 O.2     1  UNL1       -0.2699
      3 N           4.0627    1.6338   35.2604 N.am    1  UNL1       -0.2742
      4 C           3.6599    2.6083   36.3272 C.3     1  UNL1        0.1152
      5 C           3.6651    1.8760   33.8344 C.3     1  UNL1        0.0972
      6 C           4.5705    2.3443   32.7340 C.3     1  UNL1        0.0431
      7 C           3.7573    2.4502   31.4781 C.3     1  UNL1        0.0968
      8 N           2.3492    2.0472   31.8022 N.am    1  UNL1       -0.2623
      9 C           1.1999    2.0063   30.8392 C.2     1  UNL1        0.3073
     10 O          -0.1588    1.5802   31.3107 O.2     1  UNL1       -0.2523
     11 N           1.4094    2.3915   29.4047 N.am    1  UNL1       -0.2626
     12 C           2.7041    2.8360   28.7912 C.3     1  UNL1        0.0964
     13 C           2.4558    3.1190   27.3392 C.3     1  UNL1        0.0390
     14 C           1.0078    2.8494   27.0553 C.3     1  UNL1        0.0759
     15 C           0.3611    2.3998   28.3319 C.3     1  UNL1        0.1106
     16 C           2.2923    1.6924   33.2585 C.3     1  UNL1        0.1147
     17 N           0.3261    3.0025   25.7280 N.3     1  UNL1       -0.2950
     18 H           0.9199    3.6069   25.1600 H       1  UNL1        0.1233
     19 C           0.0208    1.7913   24.8975 C.3     1  UNL1        0.1007
     20 C           1.1330    1.0462   24.2208 C.3     1  UNL1        0.1542
     21 O           2.0452    0.1677   25.0249 O.3     1  UNL1       -0.3805
     22 H           2.5639    0.7137   25.6361 H       1  UNL1        0.2105
     23 C           6.0714   -2.5066   32.4192 C.ar    1  UNL1        0.0000
     24 C           7.0474   -1.4733   32.8983 C.ar    1  UNL1        0.0001
     25 C           6.6446   -0.4988   33.9651 C.ar    1  UNL1        0.0045
     26 C           5.2658   -0.5575   34.5527 C.ar    1  UNL1        0.0536
     27 C           4.2898   -1.5908   34.0736 C.ar    1  UNL1        0.0045
     28 C           4.6926   -2.5653   33.0068 C.ar    1  UNL1        0.0001
     29 C           7.2798   -5.4302   29.2188 C.ar    1  UNL1       -0.0222
     30 C           7.2893   -5.8486   30.6592 C.ar    1  UNL1       -0.0043
     31 C           6.8865   -4.8741   31.7260 C.ar    1  UNL1       -0.0003
     32 C           6.4742   -3.4811   31.3524 C.ar    1  UNL1       -0.0000
     33 C           6.4646   -3.0628   29.9120 C.ar    1  UNL1       -0.0003
     34 C           6.8674   -4.0373   28.8452 C.ar    1  UNL1       -0.0043
     35 C           6.9879   -6.3911   26.8227 C.3     1  UNL1        0.0050
     36 C           7.6826   -6.4048   28.1521 C.3     1  UNL1        0.0264
@<TRIPOS>BOND
     1    35    36    1
     2    36    29    1
     3    29    30   ar
     4    30    31   ar
     5    31    32   ar
     6    32    23    1
     7    23    24   ar
     8    24    25   ar
     9    25    26   ar
    10    26     1    1
    11     1     2    2
    12     1     3   am
    13     3     4    1
    14     5     3    1
    15     5     6    1
    16     6     7    1
    17     7     8    1
    18     8     9   am
    19     9    10    2
    20     9    11   am
    21    11    12    1
    22    12    13    1
    23    13    14    1
    24    14    17    1
    25    17    19    1
    26    19    20    1
    27    20    21    1
    28    14    15    1
    29     8    16    1
    30    26    27   ar
    31    27    28   ar
    32    32    33   ar
    33    33    34   ar
    34    34    29   ar
    35    28    23   ar
    36    16     5    1
    37    15    11    1
    38    17    18    1
    39    21    22    1
@<TRIPOS>MOLECULE
*****
 36 39 0 0 0
SMALL
GASTEIGER

@<TRIPOS>ATOM
      1 C           4.8216   -0.8124   18.7697 C.2     1  UNL1        0.2491
      2 O           4.6250   -0.3439   17.3584 O.2     1  UNL1       -0.2699
      3 N           5.9021   -1.8030   19.0875 N.am    1  UNL1       -0.2742
      4 C           6.7862   -2.3251   17.9939 C.3     1  UNL1        0.1152
      5 C           6.0987   -2.2715   20.4989 C.3     1  UNL1        0.0972
      6 C           5.5558   -3.5382   21.0911 C.3     1  UNL1        0.0431
      7 C           5.9943   -3.6051   22.5240 C.3     1  UNL1        0.0968
      8 N           6.8083   -2.3798   22.8174 N.am    1  UNL1       -0.2623
      9 C           7.4458   -2.0386   24.1316 C.2     1  UNL1        0.3073
     10 O           8.2348   -0.7710   24.2757 O.2     1  UNL1       -0.2523
     11 N           7.2944   -2.9650   25.3016 N.am    1  UNL1       -0.2626
     12 C           6.5390   -4.2609   25.3080 C.3     1  UNL1        0.0964
     13 C           6.6494   -4.8549   26.6810 C.3     1  UNL1        0.0390
     14 C           7.4730   -3.9261   27.5230 C.3     1  UNL1        0.0759
     15 C           7.8716   -2.7581   26.6705 C.3     1  UNL1        0.1106
     16 C           6.8729   -1.5556   21.5658 C.3     1  UNL1        0.1147
     17 N           7.8346   -4.1296   28.9645 N.3     1  UNL1       -0.2950
     18 H           7.9718   -3.2026   29.3673 H       1  UNL1        0.1233
     19 C           6.8968   -4.8635   29.8765 C.3     1  UNL1        0.1007
     20 C           7.4314   -5.5894   31.0755 C.3     1  UNL1        0.1542
     21 O           6.4850   -6.1734   32.0822 O.3     1  UNL1       -0.3805
     22 H           6.0038   -5.4580   32.5267 H       1  UNL1        0.2105
     23 C           2.1695    0.7540   22.0504 C.ar    1  UNL1        0.0000
     24 C           1.7843   -0.4884   21.3035 C.ar    1  UNL1        0.0001
     25 C           2.6684   -1.0106   20.2100 C.ar    1  UNL1        0.0045
     26 C           3.9376   -0.2903   19.8633 C.ar    1  UNL1        0.0536
     27 C           4.3227    0.9522   20.6102 C.ar    1  UNL1        0.0045
     28 C           3.4387    1.4743   21.7038 C.ar    1  UNL1        0.0001
     29 C          -0.4825    2.3204   25.3311 C.ar    1  UNL1       -0.0222
     30 C          -0.6205    2.8540   23.9361 C.ar    1  UNL1       -0.0043
     31 C           0.2635    2.3319   22.8425 C.ar    1  UNL1       -0.0003
     32 C           1.2855    1.2762   23.1440 C.ar    1  UNL1       -0.0000
     33 C           1.4235    0.7425   24.5390 C.ar    1  UNL1       -0.0003
     34 C           0.5394    1.2647   25.6326 C.ar    1  UNL1       -0.0043
     35 C          -2.6143    3.6014   26.0825 C.3     1  UNL1        0.0050
     36 C          -1.3665    2.8426   26.4247 C.3     1  UNL1        0.0264
@<TRIPOS>BOND
     1    35    36    1
     2    36    29    1
     3    29    30   ar
     4    30    31   ar
     5    31    32   ar
     6    32    23    1
     7    23    24   ar
     8    24    25   ar
     9    25    26   ar
    10    26     1    1
    11     1     2    2
    12     1     3   am
    13     3     4    1
    14     5     3    1
    15     5     6    1
    16     6     7    1
    17     7     8    1
    18     8     9   am
    19     9    10    2
    20     9    11   am
    21    11    12    1
    22    12    13    1
    23    13    14    1
    24    14    17    1
    25    17    19    1
    26    19    20    1
    27    20    21    1
    28    14    15    1
    29     8    16    1
    30    26    27   ar
    31    27    28   ar
    32    32    33   ar
    33    33    34   ar
    34    34    29   ar
    35    28    23   ar
    36    16     5    1
    37    15    11    1
    38    17    18    1
    39    21    22    1
@<TRIPOS>MOLECULE
*****
 36 39 0 0 0
SMALL
GASTEIGER

@<TRIPOS>ATOM
      1 C           5.2657   -1.9545   18.7804 C.2     1  UNL1        0.2491
      2 O           5.9474   -2.4294   17.5315 O.2     1  UNL1       -0.2699
      3 N           4.1977   -0.9044   18.6989 N.am    1  UNL1       -0.2742
      4 C           3.8115   -0.3291   17.3685 C.3     1  UNL1        0.1152
      5 C           3.5160   -0.4295   19.9478 C.3     1  UNL1        0.0972
      6 C           2.0925   -0.7028   20.3337 C.3     1  UNL1        0.0431
      7 C           1.8348   -0.0401   21.6544 C.3     1  UNL1        0.0968
      8 N           3.0991    0.6429   22.0849 N.am    1  UNL1       -0.2623
      9 C           3.2907    1.4285   23.3482 C.2     1  UNL1        0.3073
     10 O           4.6193    2.0580   23.6457 O.2     1  UNL1       -0.2523
     11 N           2.1537    1.5846   24.3141 N.am    1  UNL1       -0.2626
     12 C           0.7753    1.0153   24.1527 C.3     1  UNL1        0.0964
     13 C          -0.0348    1.4162   25.3497 C.3     1  UNL1        0.0390
     14 C           0.8429    2.2333   26.2509 C.3     1  UNL1        0.0759
     15 C           2.1955    2.3373   25.6108 C.3     1  UNL1        0.1106
     16 C           4.1381    0.4022   21.0301 C.3     1  UNL1        0.1147
     17 N           0.4390    2.8398   27.5620 N.3     1  UNL1       -0.2950
     18 H          -0.5016    3.2139   27.4360 H       1  UNL1        0.1233
     19 C           0.4066    1.9949   28.8009 C.3     1  UNL1        0.1007
     20 C           0.9802    0.6090   28.7787 C.3     1  UNL1        0.1542
     21 O           0.2828   -0.5031   29.5048 O.3     1  UNL1       -0.3805
     22 H           0.3083   -0.3321   30.4593 H       1  UNL1        0.2105
     23 C           6.4244   -3.6803   22.7715 C.ar    1  UNL1        0.0000
     24 C           7.3978   -2.8291   22.0113 C.ar    1  UNL1        0.0001
     25 C           7.0115   -2.2538   20.6810 C.ar    1  UNL1        0.0045
     26 C           5.6519   -2.5298   20.1107 C.ar    1  UNL1        0.0536
     27 C           4.6785   -3.3810   20.8709 C.ar    1  UNL1        0.0045
     28 C           5.0648   -3.9563   22.2013 C.ar    1  UNL1        0.0001
     29 C           7.5831   -5.4061   26.7626 C.ar    1  UNL1       -0.0222
     30 C           6.8231   -4.1147   26.6961 C.ar    1  UNL1       -0.0043
     31 C           6.4368   -3.5394   25.3657 C.ar    1  UNL1       -0.0003
     32 C           6.8106   -4.2556   24.1019 C.ar    1  UNL1       -0.0000
     33 C           7.5707   -5.5470   24.1684 C.ar    1  UNL1       -0.0003
     34 C           7.9569   -6.1223   25.4988 C.ar    1  UNL1       -0.0043
     35 C           7.1185   -5.7176   29.2997 C.3     1  UNL1        0.0050
     36 C           7.9694   -5.9814   28.0930 C.3     1  UNL1        0.0264
@<TRIPOS>BOND
     1    35    36    1
     2    36    29    1
     3    29    30   ar
     4    30    31   ar
     5    31    32   ar
     6    32    23    1
     7    23    24   ar
     8    24    25   ar
     9    25    26   ar
    10    26     1    1
    11     1     2    2
    12     1     3   am
    13     3     4    1
    14     5     3    1
    15     5     6    1
    16     6     7    1
    17     7     8    1
    18     8     9   am
    19     9    10    2
    20     9    11   am
    21    11    12    1
    22    12    13    1
    23    13    14    1
    24    14    17    1
    25    17    19    1
    26    19    20    1
    27    20    21    1
    28    14    15    1
    29     8    16    1
    30    26    27   ar
    31    27    28   ar
    32    32    33   ar
    33    33    34   ar
    34    34    29   ar
    35    28    23   ar
    36    16     5    1
    37    15    11    1
    38    17    18    1
    39    21    22    1
@<TRIPOS>MOLECULE
*****
 36 39 0 0 0
SMALL
GASTEIGER

@<TRIPOS>ATOM
      1 C          -0.5384    5.4004   19.0808 C.2     1  UNL1        0.2491
      2 O          -1.2898    6.6737   18.8280 O.2     1  UNL1       -0.2699
      3 N           0.2510    4.7635   17.9758 N.am    1  UNL1       -0.2742
      4 C           0.2890    5.3998   16.6180 C.3     1  UNL1        0.1152
      5 C           1.0026    3.4901   18.2285 C.3     1  UNL1        0.0972
      6 C           0.4133    2.1112   18.2664 C.3     1  UNL1        0.0431
      7 C           1.5218    1.1410   18.5491 C.3     1  UNL1        0.0968
      8 N           2.7962    1.9203   18.6859 N.am    1  UNL1       -0.2623
      9 C           4.1533    1.3482   18.9708 C.2     1  UNL1        0.3073
     10 O           5.3421    2.2564   19.0804 O.2     1  UNL1       -0.2523
     11 N           4.3215   -0.1320   19.1461 N.am    1  UNL1       -0.2626
     12 C           3.2311   -1.1590   19.0648 C.3     1  UNL1        0.0964
     13 C           3.8453   -2.5068   19.3019 C.3     1  UNL1        0.0390
     14 C           5.3152   -2.3128   19.5297 C.3     1  UNL1        0.0759
     15 C           5.6094   -0.8451   19.4334 C.3     1  UNL1        0.1106
     16 C           2.4753    3.3721   18.4878 C.3     1  UNL1        0.1147
     17 N           6.3152   -3.3962   19.8053 N.3     1  UNL1       -0.2950
     18 H           7.0661   -3.2841   19.1241 H       1  UNL1        0.1233
     19 C           6.9648   -3.4918   21.1540 C.3     1  UNL1        0.1007
     20 C           8.1891   -4.3388   21.3384 C.3     1  UNL1        0.1542
     21 O           8.1612   -5.7899   20.9593 O.3     1  UNL1       -0.3805
     22 H           7.5465   -6.2642   21.5407 H       1  UNL1        0.2105
     23 C          -0.6523    3.4914   23.1542 C.ar    1  UNL1        0.0000
     24 C          -1.8049    3.3149   22.2107 C.ar    1  UNL1        0.0001
     25 C          -1.7669    3.9512   20.8529 C.ar    1  UNL1        0.0045
     26 C          -0.5763    4.7641   20.4386 C.ar    1  UNL1        0.0536
     27 C           0.5763    4.9406   21.3821 C.ar    1  UNL1        0.0045
     28 C           0.5383    4.3042   22.7398 C.ar    1  UNL1        0.0001
     29 C          -0.7662    1.5823   27.2275 C.ar    1  UNL1       -0.0222
     30 C          -1.6782    2.7305   26.9116 C.ar    1  UNL1       -0.0043
     31 C          -1.6402    3.3669   25.5538 C.ar    1  UNL1       -0.0003
     32 C          -0.6902    2.8550   24.5119 C.ar    1  UNL1       -0.0000
     33 C           0.2217    1.7068   24.8279 C.ar    1  UNL1       -0.0003
     34 C           0.1838    1.0705   26.1857 C.ar    1  UNL1       -0.0043
     35 C          -1.3976   -0.4209   28.7567 C.3     1  UNL1        0.0050
     36 C          -0.8041    0.9460   28.5853 C.3     1  UNL1        0.0264
@<TRIPOS>BOND
     1    35    36    1
     2    36    29    1
     3    29    30   ar
     4    30    31   ar
     5    31    32   ar
     6    32    23    1
     7    23    24   ar
     8    24    25   ar
     9    25    26   ar
    10    26     1    1
    11     1     2    2
    12     1     3   am
    13     3     4    1
    14     5     3    1
    15     5     6    1
    16     6     7    1
    17     7     8    1
    18     8     9   am
    19     9    10    2
    20     9    11   am
    21    11    12    1
    22    12    13    1
    23    13    14    1
    24    14    17    1
    25    17    19    1
    26    19    20    1
    27    20    21    1
    28    14    15    1
    29     8    16    1
    30    26    27   ar
    31    27    28   ar
    32    32    33   ar
    33    33    34   ar
    34    34    29   ar
    35    28    23   ar
    36    16     5    1
    37    15    11    1
    38    17    18    1
    39    21    22    1
