@<TRIPOS>MOLECULE
*****
 40 42 0 0 0
SMALL
GASTEIGER

@<TRIPOS>ATOM
      1 C           5.6537   -3.2599   19.7559 C.3     1  UNL1        0.2120
      2 O           4.9543   -4.1936   20.6988 O.3     1  UNL1       -0.3763
      3 H           5.5939   -4.5491   21.3356 H       1  UNL1        0.2107
      4 C           6.3531   -2.3263   18.8129 C.3     1  UNL1        0.4226
      5 F           7.0525   -1.3927   17.8700 F       1  UNL1       -0.1675
      6 F           5.9255   -3.1769   17.6537 F       1  UNL1       -0.1675
      7 F           6.7807   -1.4758   19.9722 F       1  UNL1       -0.1675
      8 C           4.3575   -3.0070   19.0449 C.3     1  UNL1        0.1307
      9 N           3.6468   -1.6982   19.2239 N.am    1  UNL1       -0.2721
     10 C           3.4207   -0.7999   18.0441 C.2     1  UNL1        0.2677
     11 O           3.9053   -1.2104   16.6852 O.2     1  UNL1       -0.2682
     12 C           2.7100    0.5089   18.2232 C.ar    1  UNL1        0.1451
     13 N           1.2109    0.5567   18.2067 N.ar    1  UNL1       -0.2384
     14 C           0.5002    1.8655   18.3858 C.ar    1  UNL1        0.0991
     15 C           1.2888    3.1265   18.5815 C.ar    1  UNL1        0.0215
     16 C           2.7879    3.0785   18.5980 C.ar    1  UNL1        0.0147
     17 C           3.4986    1.7698   18.4189 C.ar    1  UNL1        0.0798
     18 CL          4.9977    1.7219   18.4354 Cl      1  UNL1       -0.0805
     19 C           4.0701   -0.5297   21.5055 C.3     1  UNL1        0.0233
     20 C           3.1622   -1.2876   20.5829 C.3     1  UNL1        0.0939
     21 C           6.9500   -3.5129   20.4669 C.3     1  UNL1        0.1269
     22 N           6.9614   -4.2818   21.7548 N.am    1  UNL1       -0.2982
     23 C           8.2197   -4.9569   22.2142 C.2     1  UNL1        0.2502
     24 O           9.4666   -4.8630   21.3857 O.2     1  UNL1       -0.2700
     25 H           6.1430   -4.3434   22.2986 H       1  UNL1        0.1498
     26 C           8.2311   -5.7258   23.5020 C.ar    1  UNL1        0.1053
     27 C           8.4851   -7.1969   23.6484 C.ar    1  UNL1        0.1278
     28 N           8.4015   -7.5389   25.1065 N.ar    1  UNL1       -0.1622
     29 N           8.0959   -6.2792   25.8613 N.ar    1  UNL1       -0.2163
     30 C           7.9906   -5.1586   24.8697 C.ar    1  UNL1        0.1327
     31 N           7.6965   -3.7230   25.1896 N.pl3   1  UNL1       -0.3424
     32 H           7.5525   -3.4462   26.1233 H       1  UNL1        0.1437
     33 H           7.6475   -3.0574   24.4658 H       1  UNL1        0.1437
     34 C           7.9255   -6.1608   27.3469 C.ar    1  UNL1        0.0843
     35 C           8.9676   -6.7218   28.2684 C.ar    1  UNL1        0.0215
     36 C           8.7972   -6.6034   29.7540 C.ar    1  UNL1        0.0312
     37 C           7.5847   -5.9240   30.3180 C.ar    1  UNL1        0.1402
     38 F           7.4143   -5.8056   31.8036 F       1  UNL1       -0.2042
     39 C           6.5426   -5.3630   29.3965 C.ar    1  UNL1        0.0312
     40 C           6.7130   -5.4814   27.9109 C.ar    1  UNL1        0.0215
@<TRIPOS>BOND
     1    19    20    1
     2    20     9    1
     3     9     8    1
     4     8     1    1
     5     1     2    1
     6     1    21    1
     7    21    22    1
     8    22    23   am
     9    23    24    2
    10    23    26    1
    11    26    27   ar
    12    27    28   ar
    13    28    29   ar
    14    29    34    1
    15    34    35   ar
    16    35    36   ar
    17    36    37   ar
    18    37    38    1
    19    37    39   ar
    20    39    40   ar
    21    29    30   ar
    22    30    31    1
    23     1     4    1
    24     4     5    1
    25     4     6    1
    26     4     7    1
    27     9    10   am
    28    10    11    2
    29    10    12    1
    30    12    13   ar
    31    13    14   ar
    32    14    15   ar
    33    15    16   ar
    34    16    17   ar
    35    17    18    1
    36    30    26   ar
    37    17    12   ar
    38    40    34   ar
    39     2     3    1
    40    22    25    1
    41    31    32    1
    42    31    33    1
@<TRIPOS>MOLECULE
*****
 40 42 0 0 0
SMALL
GASTEIGER

@<TRIPOS>ATOM
      1 C           4.9302   -2.6692   19.7892 C.3     1  UNL1        0.2120
      2 O           5.0859   -1.3947   20.5647 O.3     1  UNL1       -0.3763
      3 H           6.0008   -1.3162   20.8774 H       1  UNL1        0.2107
      4 C           4.7745   -3.9436   19.0136 C.3     1  UNL1        0.4226
      5 F           4.6188   -5.2180   18.2380 F       1  UNL1       -0.1675
      6 F           3.8298   -4.4629   20.0567 F       1  UNL1       -0.1675
      7 F           5.7192   -3.4243   17.9705 F       1  UNL1       -0.1675
      8 C           3.4848   -2.3473   19.5505 C.3     1  UNL1        0.1307
      9 N           3.0976   -1.0166   18.9765 N.am    1  UNL1       -0.2721
     10 C           2.4295    0.0086   19.8439 C.2     1  UNL1        0.2677
     11 O           2.1486   -0.2967   21.2854 O.2     1  UNL1       -0.2682
     12 C           2.0423    1.3392   19.2699 C.ar    1  UNL1        0.1451
     13 N           0.6563    1.5516   18.7372 N.ar    1  UNL1       -0.2384
     14 C           0.2691    2.8823   18.1631 C.ar    1  UNL1        0.0991
     15 C           1.2680    4.0006   18.1218 C.ar    1  UNL1        0.0215
     16 C           2.6540    3.7881   18.6545 C.ar    1  UNL1        0.0147
     17 C           3.0412    2.4575   19.2286 C.ar    1  UNL1        0.0798
     18 CL          4.4273    2.2451   19.7613 Cl      1  UNL1       -0.0805
     19 C           4.7595   -0.3102   17.1086 C.3     1  UNL1        0.0233
     20 C           3.3785   -0.7113   17.5350 C.3     1  UNL1        0.0939
     21 C           6.3757   -2.9910   20.0279 C.3     1  UNL1        0.1269
     22 N           6.7603   -3.9581   21.1080 N.am    1  UNL1       -0.2982
     23 C           6.9884   -3.4680   22.5072 C.2     1  UNL1        0.2502
     24 O           6.8319   -2.0107   22.8263 O.2     1  UNL1       -0.2700
     25 H           6.8630   -4.9146   20.8986 H       1  UNL1        0.1498
     26 C           7.3730   -4.4351   23.5873 C.ar    1  UNL1        0.1053
     27 C           8.0042   -5.7804   23.3825 C.ar    1  UNL1        0.1278
     28 N           8.2152   -6.4035   24.7305 N.ar    1  UNL1       -0.1622
     29 N           7.7144   -5.4434   25.7685 N.ar    1  UNL1       -0.2163
     30 C           7.1939   -4.2269   25.0620 C.ar    1  UNL1        0.1327
     31 N           6.5988   -3.0149   25.7153 N.pl3   1  UNL1       -0.3424
     32 H           6.5234   -2.9714   26.6960 H       1  UNL1        0.1437
     33 H           6.2835   -2.2630   25.1635 H       1  UNL1        0.1437
     34 C           7.7312   -5.6615   27.2525 C.ar    1  UNL1        0.0843
     35 C           6.5912   -5.1718   28.0955 C.ar    1  UNL1        0.0215
     36 C           6.6080   -5.3899   29.5794 C.ar    1  UNL1        0.0312
     37 C           7.7648   -6.0977   30.2204 C.ar    1  UNL1        0.1402
     38 F           7.7816   -6.3158   31.7044 F       1  UNL1       -0.2042
     39 C           8.9048   -6.5874   29.3774 C.ar    1  UNL1        0.0312
     40 C           8.8880   -6.3693   27.8935 C.ar    1  UNL1        0.0215
@<TRIPOS>BOND
     1    19    20    1
     2    20     9    1
     3     9     8    1
     4     8     1    1
     5     1     2    1
     6     1    21    1
     7    21    22    1
     8    22    23   am
     9    23    24    2
    10    23    26    1
    11    26    27   ar
    12    27    28   ar
    13    28    29   ar
    14    29    34    1
    15    34    35   ar
    16    35    36   ar
    17    36    37   ar
    18    37    38    1
    19    37    39   ar
    20    39    40   ar
    21    29    30   ar
    22    30    31    1
    23     1     4    1
    24     4     5    1
    25     4     6    1
    26     4     7    1
    27     9    10   am
    28    10    11    2
    29    10    12    1
    30    12    13   ar
    31    13    14   ar
    32    14    15   ar
    33    15    16   ar
    34    16    17   ar
    35    17    18    1
    36    30    26   ar
    37    17    12   ar
    38    40    34   ar
    39     2     3    1
    40    22    25    1
    41    31    32    1
    42    31    33    1
@<TRIPOS>MOLECULE
*****
 40 42 0 0 0
SMALL
GASTEIGER

@<TRIPOS>ATOM
      1 C           0.7912    0.6195   19.7741 C.3     1  UNL1        0.2120
      2 O          -0.2856    0.0528   20.6512 O.3     1  UNL1       -0.3763
      3 H          -0.9007    0.7586   20.9049 H       1  UNL1        0.2107
      4 C           1.8680    1.1862   18.8969 C.3     1  UNL1        0.4226
      5 F           2.9448    1.7529   18.0198 F       1  UNL1       -0.1675
      6 F           2.2719    2.1220   19.9975 F       1  UNL1       -0.1675
      7 F           1.4641    0.2504   17.7964 F       1  UNL1       -0.1675
      8 C           1.4195   -0.7384   19.6681 C.3     1  UNL1        0.1307
      9 N           2.6829   -1.0408   20.4181 N.am    1  UNL1       -0.2721
     10 C           3.8928   -1.5341   19.6812 C.2     1  UNL1        0.2677
     11 O           3.8393   -1.7250   18.1944 O.2     1  UNL1       -0.2682
     12 C           5.1561   -1.8365   20.4313 C.ar    1  UNL1        0.1451
     13 N           6.2172   -0.7851   20.5679 N.ar    1  UNL1       -0.2384
     14 C           7.4805   -1.0875   21.3179 C.ar    1  UNL1        0.0991
     15 C           7.6828   -2.4414   21.9314 C.ar    1  UNL1        0.0215
     16 C           6.6217   -3.4927   21.7947 C.ar    1  UNL1        0.0147
     17 C           5.3583   -3.1903   21.0446 C.ar    1  UNL1        0.0798
     18 CL          4.2972   -4.2417   20.9080 Cl      1  UNL1       -0.0805
     19 C           3.3082    0.4125   22.4789 C.3     1  UNL1        0.0233
     20 C           2.7365   -0.8499   21.9049 C.3     1  UNL1        0.0939
     21 C           0.1629    1.9775   19.8801 C.3     1  UNL1        0.1269
     22 N          -1.0311    2.1844   20.7640 N.am    1  UNL1       -0.2982
     23 C          -2.0299    3.2547   20.4369 C.2     1  UNL1        0.2502
     24 O          -1.8346    4.1180   19.2259 O.2     1  UNL1       -0.2700
     25 H          -1.1593    1.6178   21.5588 H       1  UNL1        0.1498
     26 C          -3.2239    3.4617   21.3209 C.ar    1  UNL1        0.1053
     27 C          -4.6255    3.0140   21.0287 C.ar    1  UNL1        0.1278
     28 N          -5.4939    3.4283   22.1795 N.ar    1  UNL1       -0.1622
     29 N          -4.6291    4.1321   23.1828 N.ar    1  UNL1       -0.2163
     30 C          -3.2262    4.1527   22.6522 C.ar    1  UNL1        0.1327
     31 N          -2.0347    4.7581   23.3333 N.pl3   1  UNL1       -0.3424
     32 H          -2.1373    5.1923   24.2109 H       1  UNL1        0.1437
     33 H          -1.1502    4.7213   22.9027 H       1  UNL1        0.1437
     34 C          -5.0868    4.7133   24.4878 C.ar    1  UNL1        0.0843
     35 C          -4.4745    4.2434   25.7740 C.ar    1  UNL1        0.0215
     36 C          -4.9322    4.8245   27.0788 C.ar    1  UNL1        0.0312
     37 C          -6.0022    5.8756   27.0975 C.ar    1  UNL1        0.1402
     38 F          -6.4599    6.4568   28.4025 F       1  UNL1       -0.2042
     39 C          -6.6145    6.3455   25.8114 C.ar    1  UNL1        0.0312
     40 C          -6.1568    5.7644   24.5065 C.ar    1  UNL1        0.0215
@<TRIPOS>BOND
     1    19    20    1
     2    20     9    1
     3     9     8    1
     4     8     1    1
     5     1     2    1
     6     1    21    1
     7    21    22    1
     8    22    23   am
     9    23    24    2
    10    23    26    1
    11    26    27   ar
    12    27    28   ar
    13    28    29   ar
    14    29    34    1
    15    34    35   ar
    16    35    36   ar
    17    36    37   ar
    18    37    38    1
    19    37    39   ar
    20    39    40   ar
    21    29    30   ar
    22    30    31    1
    23     1     4    1
    24     4     5    1
    25     4     6    1
    26     4     7    1
    27     9    10   am
    28    10    11    2
    29    10    12    1
    30    12    13   ar
    31    13    14   ar
    32    14    15   ar
    33    15    16   ar
    34    16    17   ar
    35    17    18    1
    36    30    26   ar
    37    17    12   ar
    38    40    34   ar
    39     2     3    1
    40    22    25    1
    41    31    32    1
    42    31    33    1
@<TRIPOS>MOLECULE
*****
 40 42 0 0 0
SMALL
GASTEIGER

@<TRIPOS>ATOM
      1 C          -3.7033    3.7150   19.9808 C.3     1  UNL1        0.2120
      2 O          -3.5565    2.4751   20.8122 O.3     1  UNL1       -0.3763
      3 H          -2.6155    2.3026   20.9722 H       1  UNL1        0.2107
      4 C          -3.8500    4.9549   19.1494 C.3     1  UNL1        0.4226
      5 F          -3.9967    6.1946   18.3180 F       1  UNL1       -0.1675
      6 F          -3.1832    5.7567   20.2276 F       1  UNL1       -0.1675
      7 F          -4.5168    4.1530   18.0712 F       1  UNL1       -0.1675
      8 C          -5.1948    3.5596   20.0123 C.3     1  UNL1        0.1307
      9 N          -6.0132    4.3706   20.9729 N.am    1  UNL1       -0.2721
     10 C          -5.9911    4.0458   22.4372 C.2     1  UNL1        0.2677
     11 O          -5.1506    2.9101   22.9409 O.2     1  UNL1       -0.2682
     12 C          -6.8094    4.8568   23.3977 C.ar    1  UNL1        0.1451
     13 N          -8.2691    4.5604   23.5756 N.ar    1  UNL1       -0.2384
     14 C          -9.0874    5.3714   24.5361 C.ar    1  UNL1        0.0991
     15 C          -8.4462    6.4788   25.3188 C.ar    1  UNL1        0.0215
     16 C          -6.9865    6.7752   25.1408 C.ar    1  UNL1        0.0147
     17 C          -6.1682    5.9642   24.1803 C.ar    1  UNL1        0.0798
     18 CL         -4.7085    6.2606   24.0023 Cl      1  UNL1       -0.0805
     19 C          -7.6302    5.3569   19.1946 C.3     1  UNL1        0.0233
     20 C          -6.8537    5.5063   20.4692 C.3     1  UNL1        0.0939
     21 C          -2.2116    3.8704   19.9493 C.3     1  UNL1        0.1269
     22 N          -1.3285    2.6826   20.1924 N.am    1  UNL1       -0.2982
     23 C          -0.1073    2.4705   19.3476 C.2     1  UNL1        0.2502
     24 O           0.2308    3.4462   18.2597 O.2     1  UNL1       -0.2700
     25 H          -1.5504    2.0422   20.9065 H       1  UNL1        0.1498
     26 C           0.7758    1.2826   19.5907 C.ar    1  UNL1        0.1053
     27 C           0.4020    0.0480   20.3562 C.ar    1  UNL1        0.1278
     28 N           1.5829   -0.8768   20.3497 N.ar    1  UNL1       -0.1622
     29 N           2.6866   -0.2138   19.5802 N.ar    1  UNL1       -0.2163
     30 C           2.1878    1.1209   19.1111 C.ar    1  UNL1        0.1327
     31 N           2.9646    2.1185   18.3042 N.pl3   1  UNL1       -0.3424
     32 H           3.8908    1.9203   18.0356 H       1  UNL1        0.1437
     33 H           2.5482    2.9716   18.0431 H       1  UNL1        0.1437
     34 C           4.0499   -0.7850   19.3246 C.ar    1  UNL1        0.0843
     35 C           5.2492   -0.1984   20.0084 C.ar    1  UNL1        0.0215
     36 C           6.6123   -0.7697   19.7527 C.ar    1  UNL1        0.0312
     37 C           6.7763   -1.9275   18.8133 C.ar    1  UNL1        0.1402
     38 F           8.1395   -2.4987   18.5577 F       1  UNL1       -0.2042
     39 C           5.5770   -2.5141   18.1295 C.ar    1  UNL1        0.0312
     40 C           4.2138   -1.9429   18.3851 C.ar    1  UNL1        0.0215
@<TRIPOS>BOND
     1    19    20    1
     2    20     9    1
     3     9     8    1
     4     8     1    1
     5     1     2    1
     6     1    21    1
     7    21    22    1
     8    22    23   am
     9    23    24    2
    10    23    26    1
    11    26    27   ar
    12    27    28   ar
    13    28    29   ar
    14    29    34    1
    15    34    35   ar
    16    35    36   ar
    17    36    37   ar
    18    37    38    1
    19    37    39   ar
    20    39    40   ar
    21    29    30   ar
    22    30    31    1
    23     1     4    1
    24     4     5    1
    25     4     6    1
    26     4     7    1
    27     9    10   am
    28    10    11    2
    29    10    12    1
    30    12    13   ar
    31    13    14   ar
    32    14    15   ar
    33    15    16   ar
    34    16    17   ar
    35    17    18    1
    36    30    26   ar
    37    17    12   ar
    38    40    34   ar
    39     2     3    1
    40    22    25    1
    41    31    32    1
    42    31    33    1
@<TRIPOS>MOLECULE
*****
 40 42 0 0 0
SMALL
GASTEIGER

@<TRIPOS>ATOM
      1 C           4.7726   -2.7242   19.8269 C.3     1  UNL1        0.2120
      2 O           4.7134   -1.4243   20.5732 O.3     1  UNL1       -0.3763
      3 H           3.8341   -1.0292   20.4652 H       1  UNL1        0.2107
      4 C           4.8317   -4.0240   19.0807 C.3     1  UNL1        0.4226
      5 F           4.8908   -5.3238   18.3345 F       1  UNL1       -0.1675
      6 F           5.9240   -3.4752   18.2114 F       1  UNL1       -0.1675
      7 F           3.7394   -4.5728   19.9501 F       1  UNL1       -0.1675
      8 C           6.1938   -2.9126   20.2678 C.3     1  UNL1        0.1307
      9 N           6.4946   -3.6780   21.5224 N.am    1  UNL1       -0.2721
     10 C           7.8684   -4.2357   21.7495 C.2     1  UNL1        0.2677
     11 O           8.9415   -4.0281   20.7221 O.2     1  UNL1       -0.2682
     12 C           8.1692   -5.0011   23.0040 C.ar    1  UNL1        0.1451
     13 N           8.0153   -6.4930   23.0275 N.ar    1  UNL1       -0.2384
     14 C           8.3161   -7.2583   24.2820 C.ar    1  UNL1        0.0991
     15 C           8.7708   -6.5317   25.5131 C.ar    1  UNL1        0.0215
     16 C           8.9246   -5.0398   25.4895 C.ar    1  UNL1        0.0147
     17 C           8.6238   -4.2745   24.2350 C.ar    1  UNL1        0.0798
     18 CL          8.7777   -2.7826   24.2115 Cl      1  UNL1       -0.0805
     19 C           5.1799   -2.8450   23.6027 C.3     1  UNL1        0.0233
     20 C           5.4216   -3.8856   22.5498 C.3     1  UNL1        0.0939
     21 C           3.3513   -2.5357   19.3860 C.3     1  UNL1        0.1269
     22 N           2.5998   -1.3003   19.7848 N.am    1  UNL1       -0.2982
     23 C           2.4262   -0.1786   18.8042 C.2     1  UNL1        0.2502
     24 O           3.0041   -0.2923   17.4246 O.2     1  UNL1       -0.2700
     25 H           2.2205   -1.2257   20.6903 H       1  UNL1        0.1498
     26 C           1.6748    1.0568   19.2030 C.ar    1  UNL1        0.1053
     27 C           2.0357    2.4656   18.8355 C.ar    1  UNL1        0.1278
     28 N           1.0144    3.3798   19.4448 N.ar    1  UNL1       -0.1622
     29 N           0.0223    2.5360   20.1888 N.ar    1  UNL1       -0.2163
     30 C           0.4304    1.1003   20.0394 C.ar    1  UNL1        0.1327
     31 N          -0.2810   -0.0839   20.6238 N.pl3   1  UNL1       -0.3424
     32 H          -1.0950    0.0471   21.1619 H       1  UNL1        0.1437
     33 H           0.0660   -0.9921   20.4693 H       1  UNL1        0.1437
     34 C          -1.1689    3.0395   20.9489 C.ar    1  UNL1        0.0843
     35 C          -1.0718    3.2716   22.4276 C.ar    1  UNL1        0.0215
     36 C          -2.2629    3.7750   23.1876 C.ar    1  UNL1        0.0312
     37 C          -3.5512    4.0465   22.4688 C.ar    1  UNL1        0.1402
     38 F          -4.7424    4.5500   23.2289 F       1  UNL1       -0.2042
     39 C          -3.6484    3.8144   20.9901 C.ar    1  UNL1        0.0312
     40 C          -2.4572    3.3109   20.2301 C.ar    1  UNL1        0.0215
@<TRIPOS>BOND
     1    19    20    1
     2    20     9    1
     3     9     8    1
     4     8     1    1
     5     1     2    1
     6     1    21    1
     7    21    22    1
     8    22    23   am
     9    23    24    2
    10    23    26    1
    11    26    27   ar
    12    27    28   ar
    13    28    29   ar
    14    29    34    1
    15    34    35   ar
    16    35    36   ar
    17    36    37   ar
    18    37    38    1
    19    37    39   ar
    20    39    40   ar
    21    29    30   ar
    22    30    31    1
    23     1     4    1
    24     4     5    1
    25     4     6    1
    26     4     7    1
    27     9    10   am
    28    10    11    2
    29    10    12    1
    30    12    13   ar
    31    13    14   ar
    32    14    15   ar
    33    15    16   ar
    34    16    17   ar
    35    17    18    1
    36    30    26   ar
    37    17    12   ar
    38    40    34   ar
    39     2     3    1
    40    22    25    1
    41    31    32    1
    42    31    33    1
@<TRIPOS>MOLECULE
*****
 40 42 0 0 0
SMALL
GASTEIGER

@<TRIPOS>ATOM
      1 C           7.2493   -4.5359   25.2390 C.3     1  UNL1        0.2120
      2 O           6.1656   -3.6256   25.7361 O.3     1  UNL1       -0.3763
      3 H           5.6495   -4.0807   26.4198 H       1  UNL1        0.2107
      4 C           8.3329   -5.4463   24.7419 C.3     1  UNL1        0.4226
      5 F           9.4165   -6.3565   24.2448 F       1  UNL1       -0.1675
      6 F           7.2964   -6.4242   24.2737 F       1  UNL1       -0.1675
      7 F           9.3693   -4.4682   25.2102 F       1  UNL1       -0.1675
      8 C           7.7127   -3.4679   24.2934 C.3     1  UNL1        0.1307
      9 N           7.3317   -3.5326   22.8440 N.am    1  UNL1       -0.2721
     10 C           5.9036   -3.3272   22.4340 C.2     1  UNL1        0.2677
     11 O           4.8563   -3.0572   23.4734 O.2     1  UNL1       -0.2682
     12 C           5.5226   -3.3919   20.9846 C.ar    1  UNL1        0.1451
     13 N           5.0224   -4.6783   20.3973 N.ar    1  UNL1       -0.2384
     14 C           4.6415   -4.7430   18.9479 C.ar    1  UNL1        0.0991
     15 C           4.7608   -3.5213   18.0858 C.ar    1  UNL1        0.0215
     16 C           5.2610   -2.2349   18.6732 C.ar    1  UNL1        0.0147
     17 C           5.6419   -2.1702   20.1226 C.ar    1  UNL1        0.0798
     18 CL          6.1422   -0.8838   20.7099 Cl      1  UNL1       -0.0805
     19 C           8.5395   -5.1841   21.2428 C.3     1  UNL1        0.0233
     20 C           8.3790   -3.8026   21.8046 C.3     1  UNL1        0.0939
     21 C           6.7858   -5.6041   26.1847 C.3     1  UNL1        0.1269
     22 N           6.3984   -5.2461   27.5889 N.am    1  UNL1       -0.2982
     23 C           7.4380   -5.2186   28.6699 C.2     1  UNL1        0.2502
     24 O           8.8650   -5.5492   28.3467 O.2     1  UNL1       -0.2700
     25 H           5.4618   -5.0291   27.8010 H       1  UNL1        0.1498
     26 C           7.0506   -4.8606   30.0740 C.ar    1  UNL1        0.1053
     27 C           6.9826   -5.8045   31.2379 C.ar    1  UNL1        0.1278
     28 N           6.5531   -5.0231   32.4440 N.ar    1  UNL1       -0.1622
     29 N           6.3556   -3.5962   32.0258 N.ar    1  UNL1       -0.2163
     30 C           6.6631   -3.4958   30.5610 C.ar    1  UNL1        0.1327
     31 N           6.5950   -2.2494   29.7293 N.pl3   1  UNL1       -0.3424
     32 H           6.3285   -1.3962   30.1419 H       1  UNL1        0.1437
     33 H           6.8168   -2.2845   28.7707 H       1  UNL1        0.1437
     34 C           5.9261   -2.4678   32.9159 C.ar    1  UNL1        0.0843
     35 C           6.8979   -1.3822   33.2725 C.ar    1  UNL1        0.0215
     36 C           6.4683   -0.2539   34.1626 C.ar    1  UNL1        0.0312
     37 C           5.0671   -0.2111   34.6961 C.ar    1  UNL1        0.1402
     38 F           4.6376    0.9173   35.5862 F       1  UNL1       -0.2042
     39 C           4.0954   -1.2967   34.3395 C.ar    1  UNL1        0.0312
     40 C           4.5249   -2.4251   33.4494 C.ar    1  UNL1        0.0215
@<TRIPOS>BOND
     1    19    20    1
     2    20     9    1
     3     9     8    1
     4     8     1    1
     5     1     2    1
     6     1    21    1
     7    21    22    1
     8    22    23   am
     9    23    24    2
    10    23    26    1
    11    26    27   ar
    12    27    28   ar
    13    28    29   ar
    14    29    34    1
    15    34    35   ar
    16    35    36   ar
    17    36    37   ar
    18    37    38    1
    19    37    39   ar
    20    39    40   ar
    21    29    30   ar
    22    30    31    1
    23     1     4    1
    24     4     5    1
    25     4     6    1
    26     4     7    1
    27     9    10   am
    28    10    11    2
    29    10    12    1
    30    12    13   ar
    31    13    14   ar
    32    14    15   ar
    33    15    16   ar
    34    16    17   ar
    35    17    18    1
    36    30    26   ar
    37    17    12   ar
    38    40    34   ar
    39     2     3    1
    40    22    25    1
    41    31    32    1
    42    31    33    1
@<TRIPOS>MOLECULE
*****
 40 42 0 0 0
SMALL
GASTEIGER

@<TRIPOS>ATOM
      1 C         -11.0240  -18.8626   22.3980 C.3     1  UNL1        0.2120
      2 O         -10.6126  -19.8258   23.4718 O.3     1  UNL1       -0.3763
      3 H         -10.3679  -20.6737   23.0692 H       1  UNL1        0.2107
      4 C         -11.4354  -17.8994   21.3242 C.3     1  UNL1        0.4226
      5 F         -11.8468  -16.9362   20.2505 F       1  UNL1       -0.1675
      6 F         -12.8627  -18.0097   21.7722 F       1  UNL1       -0.1675
      7 F         -10.0081  -17.7891   20.8763 F       1  UNL1       -0.1675
      8 C         -11.2799  -17.8125   23.4380 C.3     1  UNL1        0.1307
      9 N         -10.1553  -16.9446   23.9201 N.am    1  UNL1       -0.2721
     10 C          -9.2798  -17.4084   25.0463 C.2     1  UNL1        0.2677
     11 O          -9.5287  -18.7400   25.6904 O.2     1  UNL1       -0.2682
     12 C          -8.1553  -16.5406   25.5283 C.ar    1  UNL1        0.1451
     13 N          -7.1047  -16.0710   24.5661 N.ar    1  UNL1       -0.2384
     14 C          -5.9802  -15.2031   25.0481 C.ar    1  UNL1        0.0991
     15 C          -5.9063  -14.8049   26.4925 C.ar    1  UNL1        0.0215
     16 C          -6.9569  -15.2745   27.4546 C.ar    1  UNL1        0.0147
     17 C          -8.0813  -16.1423   26.9726 C.ar    1  UNL1        0.0798
     18 CL         -9.1319  -16.6119   27.9348 Cl      1  UNL1       -0.0805
     19 C          -8.9598  -15.5056   22.1173 C.3     1  UNL1        0.0233
     20 C          -9.9064  -15.6130   23.2759 C.3     1  UNL1        0.0939
     21 C         -10.7681  -19.9128   21.3579 C.3     1  UNL1        0.1269
     22 N          -9.4160  -20.0202   20.7175 N.am    1  UNL1       -0.2982
     23 C          -8.1814  -20.0316   21.5693 C.2     1  UNL1        0.2502
     24 O          -8.2988  -19.9354   23.0616 O.2     1  UNL1       -0.2700
     25 H          -9.3389  -20.0833   19.7380 H       1  UNL1        0.1498
     26 C          -6.8293  -20.1390   20.9288 C.ar    1  UNL1        0.1053
     27 C          -6.3965  -21.1943   19.9544 C.ar    1  UNL1        0.1278
     28 N          -4.9723  -20.9176   19.5736 N.ar    1  UNL1       -0.1622
     29 N          -4.5248  -19.6913   20.3126 N.ar    1  UNL1       -0.2163
     30 C          -5.6725  -19.2102   21.1501 C.ar    1  UNL1        0.1327
     31 N          -5.6647  -18.0108   22.0508 N.pl3   1  UNL1       -0.3424
     32 H          -4.8526  -17.4599   22.1300 H       1  UNL1        0.1437
     33 H          -6.4716  -17.7745   22.5629 H       1  UNL1        0.1437
     34 C          -3.1678  -19.0575   20.2288 C.ar    1  UNL1        0.0843
     35 C          -2.7274  -18.3935   18.9579 C.ar    1  UNL1        0.0215
     36 C          -1.3705  -17.7597   18.8742 C.ar    1  UNL1        0.0312
     37 C          -0.4540  -17.7899   20.0613 C.ar    1  UNL1        0.1402
     38 F           0.9029  -17.1560   19.9775 F       1  UNL1       -0.2042
     39 C          -0.8945  -18.4539   21.3321 C.ar    1  UNL1        0.0312
     40 C          -2.2514  -19.0877   21.4159 C.ar    1  UNL1        0.0215
@<TRIPOS>BOND
     1    19    20    1
     2    20     9    1
     3     9     8    1
     4     8     1    1
     5     1     2    1
     6     1    21    1
     7    21    22    1
     8    22    23   am
     9    23    24    2
    10    23    26    1
    11    26    27   ar
    12    27    28   ar
    13    28    29   ar
    14    29    34    1
    15    34    35   ar
    16    35    36   ar
    17    36    37   ar
    18    37    38    1
    19    37    39   ar
    20    39    40   ar
    21    29    30   ar
    22    30    31    1
    23     1     4    1
    24     4     5    1
    25     4     6    1
    26     4     7    1
    27     9    10   am
    28    10    11    2
    29    10    12    1
    30    12    13   ar
    31    13    14   ar
    32    14    15   ar
    33    15    16   ar
    34    16    17   ar
    35    17    18    1
    36    30    26   ar
    37    17    12   ar
    38    40    34   ar
    39     2     3    1
    40    22    25    1
    41    31    32    1
    42    31    33    1
@<TRIPOS>MOLECULE
*****
 40 42 0 0 0
SMALL
GASTEIGER

@<TRIPOS>ATOM
      1 C           3.6487   -0.7896   19.4900 C.3     1  UNL1        0.2120
      2 O           3.0466   -1.4745   20.6810 O.3     1  UNL1       -0.3763
      3 H           2.3150   -0.9393   21.0261 H       1  UNL1        0.2107
      4 C           4.2507   -0.1046   18.2990 C.3     1  UNL1        0.4226
      5 F           4.8528    0.5802   17.1081 F       1  UNL1       -0.1675
      6 F           3.6220   -1.1235   17.3953 F       1  UNL1       -0.1675
      7 F           4.8795    0.9142   19.2027 F       1  UNL1       -0.1675
      8 C           4.6359   -1.9095   19.3449 C.3     1  UNL1        0.1307
      9 N           5.5073   -2.2959   20.5032 N.am    1  UNL1       -0.2721
     10 C           5.2548   -3.5801   21.2361 C.2     1  UNL1        0.2677
     11 O           4.1309   -4.4779   20.8108 O.2     1  UNL1       -0.2682
     12 C           6.1262   -3.9664   22.3943 C.ar    1  UNL1        0.1451
     13 N           7.3274   -4.8367   22.1716 N.ar    1  UNL1       -0.2384
     14 C           8.1988   -5.2230   23.3298 C.ar    1  UNL1        0.0991
     15 C           7.8690   -4.7390   24.7108 C.ar    1  UNL1        0.0215
     16 C           6.6677   -3.8688   24.9334 C.ar    1  UNL1        0.0147
     17 C           5.7963   -3.4824   23.7752 C.ar    1  UNL1        0.0798
     18 CL          4.5950   -2.6122   23.9979 Cl      1  UNL1       -0.0805
     19 C           6.3755   -0.2866   21.9028 C.3     1  UNL1        0.0233
     20 C           6.6311   -1.3981   20.9285 C.3     1  UNL1        0.0939
     21 C           2.6615    0.3304   19.6350 C.3     1  UNL1        0.1269
     22 N           2.3396    0.8750   20.9951 N.am    1  UNL1       -0.2982
     23 C           0.9141    0.9456   21.4566 C.2     1  UNL1        0.2502
     24 O          -0.1895    0.4716   20.5581 O.2     1  UNL1       -0.2700
     25 H           3.0639    1.1861   21.5848 H       1  UNL1        0.1498
     26 C           0.5922    1.4902   22.8167 C.ar    1  UNL1        0.1053
     27 C          -0.3163    2.6471   23.1109 C.ar    1  UNL1        0.1278
     28 N          -0.3477    2.8454   24.5974 N.ar    1  UNL1       -0.1622
     29 N           0.5414    1.8113   25.2219 N.ar    1  UNL1       -0.2163
     30 C           1.1222    0.9737   24.1214 C.ar    1  UNL1        0.1327
     31 N           2.0672   -0.1782   24.2950 N.pl3   1  UNL1       -0.3424
     32 H           2.3595   -0.4434   25.1970 H       1  UNL1        0.1437
     33 H           2.3952   -0.6689   23.5071 H       1  UNL1        0.1437
     34 C           0.8036    1.6439   26.6894 C.ar    1  UNL1        0.0843
     35 C          -0.2982    1.1919   27.6013 C.ar    1  UNL1        0.0215
     36 C          -0.0360    1.0246   29.0687 C.ar    1  UNL1        0.0312
     37 C           1.3280    1.3094   29.6241 C.ar    1  UNL1        0.1402
     38 F           1.5902    1.1421   31.0915 F       1  UNL1       -0.2042
     39 C           2.4297    1.7614   28.7121 C.ar    1  UNL1        0.0312
     40 C           2.1675    1.9287   27.2448 C.ar    1  UNL1        0.0215
@<TRIPOS>BOND
     1    19    20    1
     2    20     9    1
     3     9     8    1
     4     8     1    1
     5     1     2    1
     6     1    21    1
     7    21    22    1
     8    22    23   am
     9    23    24    2
    10    23    26    1
    11    26    27   ar
    12    27    28   ar
    13    28    29   ar
    14    29    34    1
    15    34    35   ar
    16    35    36   ar
    17    36    37   ar
    18    37    38    1
    19    37    39   ar
    20    39    40   ar
    21    29    30   ar
    22    30    31    1
    23     1     4    1
    24     4     5    1
    25     4     6    1
    26     4     7    1
    27     9    10   am
    28    10    11    2
    29    10    12    1
    30    12    13   ar
    31    13    14   ar
    32    14    15   ar
    33    15    16   ar
    34    16    17   ar
    35    17    18    1
    36    30    26   ar
    37    17    12   ar
    38    40    34   ar
    39     2     3    1
    40    22    25    1
    41    31    32    1
    42    31    33    1
@<TRIPOS>MOLECULE
*****
 40 42 0 0 0
SMALL
GASTEIGER

@<TRIPOS>ATOM
      1 C           8.6106   -4.9162   25.1411 C.3     1  UNL1        0.2120
      2 O           9.0924   -3.5295   25.4491 O.3     1  UNL1       -0.3763
      3 H           9.0286   -3.3696   26.4037 H       1  UNL1        0.2107
      4 C           8.1287   -6.3029   24.8330 C.3     1  UNL1        0.4226
      5 F           7.6468   -7.6896   24.5250 F       1  UNL1       -0.1675
      6 F           9.3843   -6.5665   24.0559 F       1  UNL1       -0.1675
      7 F           6.8731   -6.0393   25.6102 F       1  UNL1       -0.1675
      8 C           8.8856   -4.6883   23.6843 C.3     1  UNL1        0.1307
      9 N           7.8379   -4.0622   22.8122 N.am    1  UNL1       -0.2721
     10 C           7.6058   -4.5850   21.4256 C.2     1  UNL1        0.2677
     11 O           8.4213   -5.7340   20.9110 O.2     1  UNL1       -0.2682
     12 C           6.5581   -3.9589   20.5536 C.ar    1  UNL1        0.1451
     13 N           5.1210   -4.3632   20.6998 N.ar    1  UNL1       -0.2384
     14 C           4.0734   -3.7371   19.8278 C.ar    1  UNL1        0.0991
     15 C           4.4628   -2.7067   18.8096 C.ar    1  UNL1        0.0215
     16 C           5.8999   -2.3024   18.6635 C.ar    1  UNL1        0.0147
     17 C           6.9475   -2.9285   19.5355 C.ar    1  UNL1        0.0798
     18 CL          8.3846   -2.5242   19.3894 Cl      1  UNL1       -0.0805
     19 C           5.7757   -3.1738   24.1192 C.3     1  UNL1        0.0233
     20 C           7.0224   -2.9132   23.3268 C.3     1  UNL1        0.0939
     21 C           8.3355   -5.1442   26.5979 C.3     1  UNL1        0.1269
     22 N           8.0689   -3.9777   27.5024 N.am    1  UNL1       -0.2982
     23 C           7.0611   -4.0998   28.6066 C.2     1  UNL1        0.2502
     24 O           6.3198   -5.3884   28.8065 O.2     1  UNL1       -0.2700
     25 H           8.5554   -3.1319   27.3712 H       1  UNL1        0.1498
     26 C           6.7945   -2.9332   29.5111 C.ar    1  UNL1        0.1053
     27 C           6.7594   -1.4904   29.1021 C.ar    1  UNL1        0.1278
     28 N           6.4594   -0.6701   30.3216 N.ar    1  UNL1       -0.1622
     29 N           6.3092   -1.6059   31.4843 N.ar    1  UNL1       -0.2163
     30 C           6.5163   -3.0045   30.9833 C.ar    1  UNL1        0.1327
     31 N           6.4558   -4.2550   31.8096 N.pl3   1  UNL1       -0.3424
     32 H           6.2655   -4.1991   32.7739 H       1  UNL1        0.1437
     33 H           6.6065   -5.1316   31.3876 H       1  UNL1        0.1437
     34 C           6.0053   -1.2122   32.8995 C.ar    1  UNL1        0.0843
     35 C           4.6687   -1.5370   33.4977 C.ar    1  UNL1        0.0215
     36 C           4.3648   -1.1433   34.9129 C.ar    1  UNL1        0.0312
     37 C           5.3975   -0.4247   35.7297 C.ar    1  UNL1        0.1402
     38 F           5.0935   -0.0310   37.1449 F       1  UNL1       -0.2042
     39 C           6.7341   -0.0999   35.1314 C.ar    1  UNL1        0.0312
     40 C           7.0380   -0.4936   33.7163 C.ar    1  UNL1        0.0215
@<TRIPOS>BOND
     1    19    20    1
     2    20     9    1
     3     9     8    1
     4     8     1    1
     5     1     2    1
     6     1    21    1
     7    21    22    1
     8    22    23   am
     9    23    24    2
    10    23    26    1
    11    26    27   ar
    12    27    28   ar
    13    28    29   ar
    14    29    34    1
    15    34    35   ar
    16    35    36   ar
    17    36    37   ar
    18    37    38    1
    19    37    39   ar
    20    39    40   ar
    21    29    30   ar
    22    30    31    1
    23     1     4    1
    24     4     5    1
    25     4     6    1
    26     4     7    1
    27     9    10   am
    28    10    11    2
    29    10    12    1
    30    12    13   ar
    31    13    14   ar
    32    14    15   ar
    33    15    16   ar
    34    16    17   ar
    35    17    18    1
    36    30    26   ar
    37    17    12   ar
    38    40    34   ar
    39     2     3    1
    40    22    25    1
    41    31    32    1
    42    31    33    1
