@<TRIPOS>MOLECULE
*****
 22 26 0 0 0
SMALL
GASTEIGER

@<TRIPOS>ATOM
      1 O          -8.0914  -18.5838   19.9438 O.2     1  UNL1       -0.2699
      2 C          -8.8467  -18.8727   21.2072 C.2     1  UNL1        0.2505
      3 C         -10.2016  -18.2383   21.3151 C.ar    1  UNL1        0.0693
      4 C         -10.5634  -17.4132   20.1158 C.ar    1  UNL1        0.0060
      5 C         -11.8864  -16.7086   20.0617 C.ar    1  UNL1        0.0002
      6 C         -12.8477  -16.8291   21.2068 C.ar    1  UNL1        0.0015
      7 C         -12.4860  -17.6542   22.4061 C.ar    1  UNL1        0.0174
      8 C         -13.2240  -17.9557   23.6767 C.ar    1  UNL1        0.0201
      9 C         -12.3570  -18.8466   24.5161 C.ar    1  UNL1        0.0760
     10 N         -11.0832  -19.0958   23.7643 N.ar    1  UNL1       -0.3242
     11 C         -11.1629  -18.3588   22.4602 C.ar    1  UNL1        0.0643
     12 C          -9.9308  -19.9272   24.2192 C.3     1  UNL1        0.1275
     13 C          -8.6295  -20.2271   23.5362 C.3     1  UNL1        0.1181
     14 N          -8.1470  -19.7578   22.1957 N.am    1  UNL1       -0.2743
     15 C          -5.8152  -20.3122   21.0036 C.3     1  UNL1        0.0917
     16 C          -4.9204  -19.3642   21.3781 C.3     1  UNL1        0.0921
     17 N          -4.3426  -18.8121   21.5769 N.3     1  UNL1       -0.2713
     18 C          -3.9249  -19.9119   20.6463 C.3     1  UNL1        0.0722
     19 C          -4.9146  -20.9602   20.2321 C.3     1  UNL1        0.0191
     20 C          -6.3219  -20.9089   20.7486 C.3     1  UNL1        0.0224
     21 C          -6.7396  -19.8091   21.6792 C.3     1  UNL1        0.0191
     22 C          -5.7500  -18.7608   22.0934 C.3     1  UNL1        0.0722
@<TRIPOS>BOND
     1     1     2    2
     2     2     3    1
     3     3     4   ar
     4     4     5   ar
     5     5     6   ar
     6     6     7   ar
     7     7     8   ar
     8     8     9   ar
     9     9    10   ar
    10    10    11   ar
    11    10    12    1
    12    12    13    1
    13    13    14    1
    14    15    14    1
    15    15    16    1
    16    16    17    1
    17    17    18    1
    18    18    19    1
    19    19    20    1
    20    20    21    1
    21    21    22    1
    22    14     2   am
    23    20    15    1
    24    11     3   ar
    25    22    17    1
    26    11     7   ar
@<TRIPOS>MOLECULE
*****
 22 26 0 0 0
SMALL
GASTEIGER

@<TRIPOS>ATOM
      1 O          -9.3967  -19.0689   21.4101 O.2     1  UNL1       -0.2699
      2 C          -8.2625  -18.3546   22.0836 C.2     1  UNL1        0.2505
      3 C          -6.8887  -18.8588   21.7546 C.ar    1  UNL1        0.0693
      4 C          -6.8978  -20.0093   20.7921 C.ar    1  UNL1        0.0060
      5 C          -5.6050  -20.6335   20.3573 C.ar    1  UNL1        0.0002
      6 C          -4.3032  -20.1073   20.8848 C.ar    1  UNL1        0.0015
      7 C          -4.2941  -18.9568   21.8473 C.ar    1  UNL1        0.0174
      8 C          -3.1749  -18.2290   22.5310 C.ar    1  UNL1        0.0201
      9 C          -3.7758  -17.1550   23.3885 C.ar    1  UNL1        0.0760
     10 N          -5.2665  -17.2189   23.2347 N.ar    1  UNL1       -0.3242
     11 C          -5.5868  -18.3326   22.2821 C.ar    1  UNL1        0.0643
     12 C          -6.2676  -16.3380   23.9038 C.3     1  UNL1        0.1275
     13 C          -7.7644  -16.3330   23.8073 C.3     1  UNL1        0.1181
     14 N          -8.6524  -17.2305   22.9972 N.am    1  UNL1       -0.2743
     15 C         -11.3247  -17.1954   22.8467 C.3     1  UNL1        0.0917
     16 C         -11.8051  -18.0677   23.7675 C.3     1  UNL1        0.0921
     17 N         -12.1434  -18.5852   24.3114 N.3     1  UNL1       -0.2713
     18 C         -13.0920  -17.8153   23.4411 C.3     1  UNL1        0.0722
     19 C         -12.5607  -16.8505   22.4228 C.3     1  UNL1        0.0191
     20 C         -11.0808  -16.6556   22.2748 C.3     1  UNL1        0.0224
     21 C         -10.1322  -17.4255   23.1451 C.3     1  UNL1        0.0191
     22 C         -10.6636  -18.3902   24.1634 C.3     1  UNL1        0.0722
@<TRIPOS>BOND
     1     1     2    2
     2     2     3    1
     3     3     4   ar
     4     4     5   ar
     5     5     6   ar
     6     6     7   ar
     7     7     8   ar
     8     8     9   ar
     9     9    10   ar
    10    10    11   ar
    11    10    12    1
    12    12    13    1
    13    13    14    1
    14    15    14    1
    15    15    16    1
    16    16    17    1
    17    17    18    1
    18    18    19    1
    19    19    20    1
    20    20    21    1
    21    21    22    1
    22    14     2   am
    23    20    15    1
    24    11     3   ar
    25    22    17    1
    26    11     7   ar
@<TRIPOS>MOLECULE
*****
 22 26 0 0 0
SMALL
GASTEIGER

@<TRIPOS>ATOM
      1 O          -5.5538  -17.7498   22.7469 O.2     1  UNL1       -0.2699
      2 C          -6.6748  -18.2547   21.8874 C.2     1  UNL1        0.2505
      3 C          -8.0446  -17.7613   22.2482 C.ar    1  UNL1        0.0693
      4 C          -8.0456  -16.8338   23.4270 C.ar    1  UNL1        0.0060
      5 C          -9.3359  -16.2488   23.9198 C.ar    1  UNL1        0.0002
      6 C         -10.6251  -16.5913   23.2339 C.ar    1  UNL1        0.0015
      7 C         -10.6241  -17.5188   22.0551 C.ar    1  UNL1        0.0174
      8 C         -11.7302  -18.0355   21.1835 C.ar    1  UNL1        0.0201
      9 C         -11.1235  -18.9398   20.1519 C.ar    1  UNL1        0.0760
     10 N          -9.6425  -18.9821   20.3860 N.ar    1  UNL1       -0.3242
     11 C          -9.3339  -18.1039   21.5623 C.ar    1  UNL1        0.0643
     12 C          -8.6399  -19.7559   19.5973 C.3     1  UNL1        0.1275
     13 C          -7.1522  -19.8542   19.7614 C.3     1  UNL1        0.1181
     14 N          -6.2775  -19.1861   20.7807 N.am    1  UNL1       -0.2743
     15 C          -3.6212  -19.3828   21.0468 C.3     1  UNL1        0.0917
     16 C          -3.0507  -18.8365   19.9443 C.3     1  UNL1        0.0921
     17 N          -2.6592  -18.5160   19.2946 N.3     1  UNL1       -0.2713
     18 C          -1.7965  -19.0871   20.3807 C.3     1  UNL1        0.0722
     19 C          -2.4275  -19.6912   21.6001 C.3     1  UNL1        0.0191
     20 C          -3.9212  -19.7242   21.7334 C.3     1  UNL1        0.0224
     21 C          -4.7839  -19.1531   20.6473 C.3     1  UNL1        0.0191
     22 C          -4.1529  -18.5490   19.4280 C.3     1  UNL1        0.0722
@<TRIPOS>BOND
     1     1     2    2
     2     2     3    1
     3     3     4   ar
     4     4     5   ar
     5     5     6   ar
     6     6     7   ar
     7     7     8   ar
     8     8     9   ar
     9     9    10   ar
    10    10    11   ar
    11    10    12    1
    12    12    13    1
    13    13    14    1
    14    15    14    1
    15    15    16    1
    16    16    17    1
    17    17    18    1
    18    18    19    1
    19    19    20    1
    20    20    21    1
    21    21    22    1
    22    14     2   am
    23    20    15    1
    24    11     3   ar
    25    22    17    1
    26    11     7   ar
@<TRIPOS>MOLECULE
*****
 22 26 0 0 0
SMALL
GASTEIGER

@<TRIPOS>ATOM
      1 O          -8.5273  -16.6343   23.3087 O.2     1  UNL1       -0.2699
      2 C          -7.9201  -17.6443   22.3806 C.2     1  UNL1        0.2505
      3 C          -6.4372  -17.8330   22.5042 C.ar    1  UNL1        0.0693
      4 C          -5.8173  -16.9600   23.5547 C.ar    1  UNL1        0.0060
      5 C          -4.3402  -17.0244   23.8074 C.ar    1  UNL1        0.0002
      6 C          -3.4829  -17.9618   23.0097 C.ar    1  UNL1        0.0015
      7 C          -4.1028  -18.8348   21.9592 C.ar    1  UNL1        0.0174
      8 C          -3.5160  -19.8488   21.0225 C.ar    1  UNL1        0.0201
      9 C          -4.6305  -20.4111   20.1907 C.ar    1  UNL1        0.0760
     10 N          -5.9061  -19.7446   20.6134 N.ar    1  UNL1       -0.3242
     11 C          -5.5799  -18.7704   21.7065 C.ar    1  UNL1        0.0643
     12 C          -7.2670  -19.9951   20.0554 C.3     1  UNL1        0.1275
     13 C          -8.5855  -19.3782   20.4168 C.3     1  UNL1        0.1181
     14 N          -8.8763  -18.3319   21.4517 N.am    1  UNL1       -0.2743
     15 C         -11.2448  -17.2504   22.0729 C.3     1  UNL1        0.0917
     16 C         -11.8550  -18.0689   22.9658 C.3     1  UNL1        0.0921
     17 N         -12.2643  -18.5337   23.5084 N.3     1  UNL1       -0.2713
     18 C         -12.9461  -17.2767   23.0556 C.3     1  UNL1        0.0722
     19 C         -12.2713  -16.3714   22.0681 C.3     1  UNL1        0.0191
     20 C         -10.9147  -16.7232   21.5335 C.3     1  UNL1        0.0224
     21 C         -10.2329  -17.9802   21.9863 C.3     1  UNL1        0.0191
     22 C         -10.9077  -18.8854   22.9738 C.3     1  UNL1        0.0722
@<TRIPOS>BOND
     1     1     2    2
     2     2     3    1
     3     3     4   ar
     4     4     5   ar
     5     5     6   ar
     6     6     7   ar
     7     7     8   ar
     8     8     9   ar
     9     9    10   ar
    10    10    11   ar
    11    10    12    1
    12    12    13    1
    13    13    14    1
    14    15    14    1
    15    15    16    1
    16    16    17    1
    17    17    18    1
    18    18    19    1
    19    19    20    1
    20    20    21    1
    21    21    22    1
    22    14     2   am
    23    20    15    1
    24    11     3   ar
    25    22    17    1
    26    11     7   ar
@<TRIPOS>MOLECULE
*****
 22 26 0 0 0
SMALL
GASTEIGER

@<TRIPOS>ATOM
      1 O          -6.2462  -17.3695   23.2779 O.2     1  UNL1       -0.2699
      2 C          -7.6897  -17.3204   22.8729 C.2     1  UNL1        0.2505
      3 C          -8.0534  -18.1262   21.6611 C.ar    1  UNL1        0.0693
      4 C          -6.8843  -18.8498   21.0616 C.ar    1  UNL1        0.0060
      5 C          -7.0751  -19.7027   19.8425 C.ar    1  UNL1        0.0002
      6 C          -8.4350  -19.8319   19.2230 C.ar    1  UNL1        0.0015
      7 C          -9.6042  -19.1083   19.8225 C.ar    1  UNL1        0.0174
      8 C         -11.0518  -19.0455   19.4348 C.ar    1  UNL1        0.0201
      9 C         -11.7558  -18.1537   20.4143 C.ar    1  UNL1        0.0760
     10 N         -10.7431  -17.6655   21.4073 N.ar    1  UNL1       -0.3242
     11 C          -9.4134  -18.2555   21.0415 C.ar    1  UNL1        0.0643
     12 C         -10.9974  -16.7538   22.5607 C.3     1  UNL1        0.1275
     13 C         -10.0507  -16.2198   23.5943 C.3     1  UNL1        0.1181
     14 N          -8.5785  -16.4720   23.7333 N.am    1  UNL1       -0.2743
     15 C          -6.9147  -15.5020   25.5924 C.3     1  UNL1        0.0917
     16 C          -7.4327  -15.7987   26.8103 C.3     1  UNL1        0.0921
     17 N          -7.7074  -15.9558   27.5705 N.3     1  UNL1       -0.2713
     18 C          -6.4126  -15.2054   27.4688 C.3     1  UNL1        0.0722
     19 C          -5.8398  -14.8772   26.1219 C.3     1  UNL1        0.0191
     20 C          -6.5617  -15.2994   24.8767 C.3     1  UNL1        0.0224
     21 C          -7.8565  -16.0498   24.9784 C.3     1  UNL1        0.0191
     22 C          -8.4293  -16.3780   26.3253 C.3     1  UNL1        0.0722
@<TRIPOS>BOND
     1     1     2    2
     2     2     3    1
     3     3     4   ar
     4     4     5   ar
     5     5     6   ar
     6     6     7   ar
     7     7     8   ar
     8     8     9   ar
     9     9    10   ar
    10    10    11   ar
    11    10    12    1
    12    12    13    1
    13    13    14    1
    14    15    14    1
    15    15    16    1
    16    16    17    1
    17    17    18    1
    18    18    19    1
    19    19    20    1
    20    20    21    1
    21    21    22    1
    22    14     2   am
    23    20    15    1
    24    11     3   ar
    25    22    17    1
    26    11     7   ar
@<TRIPOS>MOLECULE
*****
 22 26 0 0 0
SMALL
GASTEIGER

@<TRIPOS>ATOM
      1 O          -7.6802  -17.2091   21.4625 O.2     1  UNL1       -0.2699
      2 C          -8.1492  -17.2240   22.8873 C.2     1  UNL1        0.2505
      3 C          -7.2867  -16.4813   23.8643 C.ar    1  UNL1        0.0693
      4 C          -6.0872  -15.8451   23.2268 C.ar    1  UNL1        0.0060
      5 C          -5.1192  -15.0629   24.0641 C.ar    1  UNL1        0.0002
      6 C          -5.3507  -14.9170   25.5389 C.ar    1  UNL1        0.0015
      7 C          -6.5502  -15.5531   26.1764 C.ar    1  UNL1        0.0174
      8 C          -7.0369  -15.5806   27.5950 C.ar    1  UNL1        0.0201
      9 C          -8.3057  -16.3798   27.6344 C.ar    1  UNL1        0.0760
     10 N          -8.6032  -16.8462   26.2402 N.ar    1  UNL1       -0.3242
     11 C          -7.5182  -16.3353   25.3391 C.ar    1  UNL1        0.0643
     12 C          -9.7681  -17.6728   25.8092 C.3     1  UNL1        0.1275
     13 C         -10.1391  -18.1796   24.4471 C.3     1  UNL1        0.1181
     14 N          -9.4186  -17.9799   23.1466 N.am    1  UNL1       -0.2743
     15 C         -10.1086  -18.8993   20.7292 C.3     1  UNL1        0.0917
     16 C         -11.0163  -18.0412   20.2008 C.3     1  UNL1        0.0921
     17 N         -11.5692  -17.5497   19.8391 N.3     1  UNL1       -0.2713
     18 C         -11.1385  -18.7582   19.0618 C.3     1  UNL1        0.0722
     19 C         -10.1346  -19.7072   19.6462 C.3     1  UNL1        0.0191
     20 C          -9.5613  -19.4478   21.0078 C.3     1  UNL1        0.0224
     21 C          -9.9919  -18.2393   21.7850 C.3     1  UNL1        0.0191
     22 C         -10.9959  -17.2903   21.2007 C.3     1  UNL1        0.0722
@<TRIPOS>BOND
     1     1     2    2
     2     2     3    1
     3     3     4   ar
     4     4     5   ar
     5     5     6   ar
     6     6     7   ar
     7     7     8   ar
     8     8     9   ar
     9     9    10   ar
    10    10    11   ar
    11    10    12    1
    12    12    13    1
    13    13    14    1
    14    15    14    1
    15    15    16    1
    16    16    17    1
    17    17    18    1
    18    18    19    1
    19    19    20    1
    20    20    21    1
    21    21    22    1
    22    14     2   am
    23    20    15    1
    24    11     3   ar
    25    22    17    1
    26    11     7   ar
@<TRIPOS>MOLECULE
*****
 22 26 0 0 0
SMALL
GASTEIGER

@<TRIPOS>ATOM
      1 O          -9.4955  -15.3786   24.5298 O.2     1  UNL1       -0.2699
      2 C          -9.0716  -16.3948   23.5111 C.2     1  UNL1        0.2505
      3 C         -10.1198  -16.7951   22.5157 C.ar    1  UNL1        0.0693
      4 C         -11.4287  -16.0925   22.7232 C.ar    1  UNL1        0.0060
      5 C         -12.5859  -16.3782   21.8126 C.ar    1  UNL1        0.0002
      6 C         -12.4342  -17.3666   20.6945 C.ar    1  UNL1        0.0015
      7 C         -11.1253  -18.0692   20.4870 C.ar    1  UNL1        0.0174
      8 C         -10.6808  -19.0859   19.4777 C.ar    1  UNL1        0.0201
      9 C          -9.2489  -19.4286   19.7645 C.ar    1  UNL1        0.0760
     10 N          -8.8084  -18.6236   20.9511 N.ar    1  UNL1       -0.3242
     11 C          -9.9681  -17.7834   21.3976 C.ar    1  UNL1        0.0643
     12 C          -7.4588  -18.6435   21.5870 C.3     1  UNL1        0.1275
     13 C          -6.9376  -17.8772   22.7664 C.3     1  UNL1        0.1181
     14 N          -7.6553  -16.8764   23.6228 N.am    1  UNL1       -0.2743
     15 C          -6.6947  -15.5242   25.7238 C.3     1  UNL1        0.0917
     16 C          -7.4332  -15.8627   26.8099 C.3     1  UNL1        0.0921
     17 N          -7.8529  -16.0370   27.4966 N.3     1  UNL1       -0.2713
     18 C          -6.7265  -15.0557   27.6318 C.3     1  UNL1        0.0722
     19 C          -5.9097  -14.6814   26.4307 C.3     1  UNL1        0.0191
     20 C          -6.2193  -15.2882   25.0943 C.3     1  UNL1        0.0224
     21 C          -7.3457  -16.2695   24.9591 C.3     1  UNL1        0.0191
     22 C          -8.1625  -16.6439   26.1602 C.3     1  UNL1        0.0722
@<TRIPOS>BOND
     1     1     2    2
     2     2     3    1
     3     3     4   ar
     4     4     5   ar
     5     5     6   ar
     6     6     7   ar
     7     7     8   ar
     8     8     9   ar
     9     9    10   ar
    10    10    11   ar
    11    10    12    1
    12    12    13    1
    13    13    14    1
    14    15    14    1
    15    15    16    1
    16    16    17    1
    17    17    18    1
    18    18    19    1
    19    19    20    1
    20    20    21    1
    21    21    22    1
    22    14     2   am
    23    20    15    1
    24    11     3   ar
    25    22    17    1
    26    11     7   ar
@<TRIPOS>MOLECULE
*****
 22 26 0 0 0
SMALL
GASTEIGER

@<TRIPOS>ATOM
      1 O         -13.6854   -8.4147   18.6135 O.2     1  UNL1       -0.2699
      2 C         -13.7998   -6.9433   18.8821 C.2     1  UNL1        0.2505
      3 C         -12.5376   -6.1507   18.7127 C.ar    1  UNL1        0.0693
      4 C         -11.3658   -6.9898   18.2970 C.ar    1  UNL1        0.0060
      5 C         -10.0250   -6.3522   18.0836 C.ar    1  UNL1        0.0002
      6 C          -9.8560   -4.8756   18.2857 C.ar    1  UNL1        0.0015
      7 C         -11.0277   -4.0365   18.7013 C.ar    1  UNL1        0.0174
      8 C         -11.1640   -2.5679   18.9746 C.ar    1  UNL1        0.0201
      9 C         -12.5891   -2.2978   19.3570 C.ar    1  UNL1        0.0760
     10 N         -13.3336   -3.5995   19.3200 N.ar    1  UNL1       -0.3242
     11 C         -12.3686   -4.6740   18.9148 C.ar    1  UNL1        0.0643
     12 C         -14.7786   -3.8059   19.6290 C.3     1  UNL1        0.1275
     13 C         -15.5969   -5.0629   19.6169 C.3     1  UNL1        0.1181
     14 N         -15.1613   -6.4593   19.2845 N.am    1  UNL1       -0.2743
     15 C         -16.6493   -8.6845   19.2724 C.3     1  UNL1        0.0917
     16 C         -17.1993   -8.8109   18.0391 C.3     1  UNL1        0.0921
     17 N         -17.5555   -8.9300   17.3063 N.3     1  UNL1       -0.2713
     18 C         -17.8401   -9.9557   18.3632 C.3     1  UNL1        0.0722
     19 C         -17.2318   -9.8159   19.7272 C.3     1  UNL1        0.0191
     20 C         -16.3389   -8.6504   20.0343 C.3     1  UNL1        0.0224
     21 C         -16.0542   -7.6247   18.9774 C.3     1  UNL1        0.0191
     22 C         -16.6626   -7.7646   17.6134 C.3     1  UNL1        0.0722
@<TRIPOS>BOND
     1     1     2    2
     2     2     3    1
     3     3     4   ar
     4     4     5   ar
     5     5     6   ar
     6     6     7   ar
     7     7     8   ar
     8     8     9   ar
     9     9    10   ar
    10    10    11   ar
    11    10    12    1
    12    12    13    1
    13    13    14    1
    14    15    14    1
    15    15    16    1
    16    16    17    1
    17    17    18    1
    18    18    19    1
    19    19    20    1
    20    20    21    1
    21    21    22    1
    22    14     2   am
    23    20    15    1
    24    11     3   ar
    25    22    17    1
    26    11     7   ar
@<TRIPOS>MOLECULE
*****
 22 26 0 0 0
SMALL
GASTEIGER

@<TRIPOS>ATOM
      1 O          -7.5598  -18.1275   23.2066 O.2     1  UNL1       -0.2699
      2 C          -6.1258  -17.8162   22.8954 C.2     1  UNL1        0.2505
      3 C          -5.4512  -18.7488   21.9336 C.ar    1  UNL1        0.0693
      4 C          -6.3508  -19.8462   21.4473 C.ar    1  UNL1        0.0060
      5 C          -5.8322  -20.8670   20.4784 C.ar    1  UNL1        0.0002
      6 C          -4.4140  -20.7906   19.9958 C.ar    1  UNL1        0.0015
      7 C          -3.5144  -19.6932   20.4821 C.ar    1  UNL1        0.0174
      8 C          -2.0815  -19.3641   20.1847 C.ar    1  UNL1        0.0201
      9 C          -1.7145  -18.1399   20.9698 C.ar    1  UNL1        0.0760
     10 N          -2.9205  -17.7123   21.7525 N.ar    1  UNL1       -0.3242
     11 C          -4.0330  -18.6724   21.4510 C.ar    1  UNL1        0.0643
     12 C          -3.0137  -16.5415   22.6726 C.3     1  UNL1        0.1275
     13 C          -4.1710  -16.0459   23.4880 C.3     1  UNL1        0.1181
     14 N          -5.5561  -16.6132   23.5872 N.am    1  UNL1       -0.2743
     15 C          -7.6020  -15.7034   25.0542 C.3     1  UNL1        0.0917
     16 C          -7.1879  -15.6259   26.3434 C.3     1  UNL1        0.0921
     17 N          -6.9824  -15.5618   27.1382 N.3     1  UNL1       -0.2713
     18 C          -8.3826  -15.1647   26.7751 C.3     1  UNL1        0.0722
     19 C          -8.8405  -15.2504   25.3493 C.3     1  UNL1        0.0191
     20 C          -7.8984  -15.7332   24.2866 C.3     1  UNL1        0.0224
     21 C          -6.4982  -16.1304   24.6498 C.3     1  UNL1        0.0191
     22 C          -6.0403  -16.0447   26.0756 C.3     1  UNL1        0.0722
@<TRIPOS>BOND
     1     1     2    2
     2     2     3    1
     3     3     4   ar
     4     4     5   ar
     5     5     6   ar
     6     6     7   ar
     7     7     8   ar
     8     8     9   ar
     9     9    10   ar
    10    10    11   ar
    11    10    12    1
    12    12    13    1
    13    13    14    1
    14    15    14    1
    15    15    16    1
    16    16    17    1
    17    17    18    1
    18    18    19    1
    19    19    20    1
    20    20    21    1
    21    21    22    1
    22    14     2   am
    23    20    15    1
    24    11     3   ar
    25    22    17    1
    26    11     7   ar
