@<TRIPOS>MOLECULE
*****
 30 32 0 0 0
SMALL
GASTEIGER

@<TRIPOS>ATOM
      1 C          -6.8106  -17.0325   22.9817 C.2     1  UNL1        0.2296
      2 O          -5.3979  -16.7874   23.4223 O.2     1  UNL1       -0.2745
      3 N          -7.2061  -18.3757   22.4438 N.am    1  UNL1       -0.2543
      4 C          -8.6189  -18.6208   22.0031 C.ar    1  UNL1        0.0565
      5 C          -8.9047  -19.0105   20.5832 C.ar    1  UNL1        0.0445
      6 C         -10.3174  -19.2556   20.1426 C.ar    1  UNL1        0.1415
      7 F         -10.6033  -19.6453   18.7225 F       1  UNL1       -0.2041
      8 C         -11.4443  -19.1109   21.1219 C.ar    1  UNL1        0.0328
      9 C         -11.1585  -18.7212   22.5419 C.ar    1  UNL1        0.0406
     10 C          -9.7458  -18.4762   22.9825 C.ar    1  UNL1        0.0181
     11 C         -12.2854  -18.5766   23.5213 C.ar    1  UNL1        0.1807
     12 N         -13.6622  -18.0679   23.2123 N.ar    1  UNL1       -0.1083
     13 N         -14.4611  -18.0921   24.4817 N.ar    1  UNL1       -0.0229
     14 N         -13.5779  -18.6158   25.5752 N.ar    1  UNL1       -0.0464
     15 N         -12.2333  -18.9151   24.9817 N.ar    1  UNL1       -0.2388
     16 H         -11.4534  -19.2713   25.4656 H       1  UNL1        0.1923
     17 C          -8.2824  -15.4501   24.4238 C.3     1  UNL1        0.0101
     18 C          -7.8278  -15.9344   23.0789 C.3     1  UNL1        0.0856
     19 C          -6.1890  -19.4739   22.3465 C.3     1  UNL1        0.1247
     20 C          -4.9326  -19.2645   21.5541 C.ar    1  UNL1       -0.0018
     21 C          -3.5957  -19.3697   22.2260 C.ar    1  UNL1        0.0005
     22 C          -2.3395  -19.1603   21.4336 C.ar    1  UNL1        0.0369
     23 C          -2.4202  -18.8458   19.9691 C.ar    1  UNL1        0.1468
     24 C          -3.7571  -18.7406   19.2972 C.ar    1  UNL1        0.0369
     25 C          -5.0133  -18.9500   20.0896 C.ar    1  UNL1        0.0005
     26 O          -1.1639  -18.6364   19.1767 O.3     1  UNL1       -0.4045
     27 C          -0.0041  -17.9079   19.7882 C.3     1  UNL1        0.5753
     28 F           1.1558  -17.1793   20.3997 F       1  UNL1       -0.1328
     29 F          -0.8396  -16.6667   19.8941 F       1  UNL1       -0.1328
     30 F           0.8314  -19.1491   19.6822 F       1  UNL1       -0.1328
@<TRIPOS>BOND
     1    17    18    1
     2    18     1    1
     3     1     2    2
     4     1     3   am
     5     3    19    1
     6    19    20    1
     7    20    21   ar
     8    21    22   ar
     9    22    23   ar
    10    23    26    1
    11    26    27    1
    12    27    28    1
    13    27    29    1
    14    27    30    1
    15    23    24   ar
    16    24    25   ar
    17     3     4    1
    18     4     5   ar
    19     5     6   ar
    20     6     7    1
    21     6     8   ar
    22     8     9   ar
    23     9    11    1
    24    11    12   ar
    25    12    13   ar
    26    13    14   ar
    27    14    15   ar
    28     9    10   ar
    29    25    20   ar
    30    10     4   ar
    31    15    11   ar
    32    15    16    1
@<TRIPOS>MOLECULE
*****
 30 32 0 0 0
SMALL
GASTEIGER

@<TRIPOS>ATOM
      1 C          -4.7485  -16.4202   25.4537 C.2     1  UNL1        0.2296
      2 O          -5.2228  -15.4238   26.4697 O.2     1  UNL1       -0.2745
      3 N          -5.3470  -16.4317   24.0783 N.am    1  UNL1       -0.2543
      4 C          -4.8727  -17.4281   23.0623 C.ar    1  UNL1        0.0565
      5 C          -5.7649  -18.5612   22.6497 C.ar    1  UNL1        0.0445
      6 C          -5.2905  -19.5575   21.6338 C.ar    1  UNL1        0.1415
      7 F          -6.1827  -20.6907   21.2212 F       1  UNL1       -0.2041
      8 C          -3.9241  -19.4209   21.0304 C.ar    1  UNL1        0.0328
      9 C          -3.0319  -18.2879   21.4430 C.ar    1  UNL1        0.0406
     10 C          -3.5062  -17.2915   22.4589 C.ar    1  UNL1        0.0181
     11 C          -1.6654  -18.1512   20.8396 C.ar    1  UNL1        0.1807
     12 N          -0.9000  -19.2326   20.1363 N.ar    1  UNL1       -0.1083
     13 N           0.4140  -18.6589   19.6956 N.ar    1  UNL1       -0.0229
     14 N           0.4607  -17.2229   20.1265 N.ar    1  UNL1       -0.0464
     15 N          -0.8245  -16.9091   20.8335 N.ar    1  UNL1       -0.2388
     16 H          -1.0725  -16.0405   21.2249 H       1  UNL1        0.1923
     17 C          -3.6363  -18.0026   27.1883 C.3     1  UNL1        0.0101
     18 C          -3.6757  -17.4051   25.8131 C.3     1  UNL1        0.0856
     19 C          -6.4198  -15.4468   23.7189 C.3     1  UNL1        0.1247
     20 C          -7.7839  -15.9331   23.3281 C.ar    1  UNL1       -0.0018
     21 C          -8.6195  -16.6949   24.3137 C.ar    1  UNL1        0.0005
     22 C          -9.9836  -17.1811   23.9228 C.ar    1  UNL1        0.0369
     23 C         -10.5121  -16.9054   22.5463 C.ar    1  UNL1        0.1468
     24 C          -9.6766  -16.1436   21.5607 C.ar    1  UNL1        0.0369
     25 C          -8.3125  -15.6574   21.9516 C.ar    1  UNL1        0.0005
     26 O         -11.8763  -17.3917   22.1554 O.3     1  UNL1       -0.4045
     27 C         -12.9810  -17.4215   23.1697 C.3     1  UNL1        0.5753
     28 F         -14.0857  -17.4514   24.1840 F       1  UNL1       -0.1328
     29 F         -12.7186  -18.8782   23.4127 F       1  UNL1       -0.1328
     30 F         -13.2434  -15.9648   22.9268 F       1  UNL1       -0.1328
@<TRIPOS>BOND
     1    17    18    1
     2    18     1    1
     3     1     2    2
     4     1     3   am
     5     3    19    1
     6    19    20    1
     7    20    21   ar
     8    21    22   ar
     9    22    23   ar
    10    23    26    1
    11    26    27    1
    12    27    28    1
    13    27    29    1
    14    27    30    1
    15    23    24   ar
    16    24    25   ar
    17     3     4    1
    18     4     5   ar
    19     5     6   ar
    20     6     7    1
    21     6     8   ar
    22     8     9   ar
    23     9    11    1
    24    11    12   ar
    25    12    13   ar
    26    13    14   ar
    27    14    15   ar
    28     9    10   ar
    29    25    20   ar
    30    10     4   ar
    31    15    11   ar
    32    15    16    1
@<TRIPOS>MOLECULE
*****
 30 32 0 0 0
SMALL
GASTEIGER

@<TRIPOS>ATOM
      1 C           1.8061    3.2301   22.4555 C.2     1  UNL1        0.2296
      2 O           2.4139    3.2427   21.0842 O.2     1  UNL1       -0.2745
      3 N           0.9022    2.1052   22.8649 N.am    1  UNL1       -0.2543
      4 C           0.2945    2.0926   24.2363 C.ar    1  UNL1        0.0565
      5 C          -0.9815    2.8366   24.4981 C.ar    1  UNL1        0.0445
      6 C          -1.5891    2.8239   25.8694 C.ar    1  UNL1        0.1415
      7 F          -2.8651    3.5679   26.1312 F       1  UNL1       -0.2041
      8 C          -0.9209    2.0674   26.9789 C.ar    1  UNL1        0.0328
      9 C           0.3551    1.3235   26.7172 C.ar    1  UNL1        0.0406
     10 C           0.9627    1.3361   25.3459 C.ar    1  UNL1        0.0181
     11 C           1.0233    0.5670   27.8267 C.ar    1  UNL1        0.1807
     12 N           0.6708    0.6428   29.2827 N.ar    1  UNL1       -0.1083
     13 N           1.5910   -0.2755   30.0310 N.ar    1  UNL1       -0.0229
     14 N           2.5124   -0.9189   29.0374 N.ar    1  UNL1       -0.0464
     15 N           2.1615   -0.3982   27.6751 N.ar    1  UNL1       -0.2388
     16 H           2.6011   -0.6464   26.8299 H       1  UNL1        0.1923
     17 C           3.3288    4.2821   24.2789 C.3     1  UNL1        0.0101
     18 C           2.1023    4.3423   23.4174 C.3     1  UNL1        0.0856
     19 C           0.6060    0.9930   21.9031 C.3     1  UNL1        0.1247
     20 C           1.6760    0.0035   21.5481 C.ar    1  UNL1       -0.0018
     21 C           2.6817   -0.4158   22.5790 C.ar    1  UNL1        0.0005
     22 C           3.7516   -1.4053   22.2240 C.ar    1  UNL1        0.0369
     23 C           3.8159   -1.9755   20.8381 C.ar    1  UNL1        0.1468
     24 C           2.8102   -1.5562   19.8072 C.ar    1  UNL1        0.0369
     25 C           1.7403   -0.5667   20.1622 C.ar    1  UNL1        0.0005
     26 O           4.8859   -2.9650   20.4832 O.3     1  UNL1       -0.4045
     27 C           4.6133   -4.0311   19.4638 C.3     1  UNL1        0.5753
     28 F           4.3407   -5.0972   18.4444 F       1  UNL1       -0.1328
     29 F           5.4414   -3.2839   18.4609 F       1  UNL1       -0.1328
     30 F           3.7852   -4.7783   20.4668 F       1  UNL1       -0.1328
@<TRIPOS>BOND
     1    17    18    1
     2    18     1    1
     3     1     2    2
     4     1     3   am
     5     3    19    1
     6    19    20    1
     7    20    21   ar
     8    21    22   ar
     9    22    23   ar
    10    23    26    1
    11    26    27    1
    12    27    28    1
    13    27    29    1
    14    27    30    1
    15    23    24   ar
    16    24    25   ar
    17     3     4    1
    18     4     5   ar
    19     5     6   ar
    20     6     7    1
    21     6     8   ar
    22     8     9   ar
    23     9    11    1
    24    11    12   ar
    25    12    13   ar
    26    13    14   ar
    27    14    15   ar
    28     9    10   ar
    29    25    20   ar
    30    10     4   ar
    31    15    11   ar
    32    15    16    1
@<TRIPOS>MOLECULE
*****
 30 32 0 0 0
SMALL
GASTEIGER

@<TRIPOS>ATOM
      1 C           6.7435   -0.5429   25.5811 C.2     1  UNL1        0.2296
      2 O           6.2752    0.7091   24.9007 O.2     1  UNL1       -0.2745
      3 N           5.8359   -1.7340   25.6675 N.am    1  UNL1       -0.2543
      4 C           6.3043   -2.9861   26.3479 C.ar    1  UNL1        0.0565
      5 C           6.8386   -4.1271   25.5340 C.ar    1  UNL1        0.0445
      6 C           7.3070   -5.3791   26.2144 C.ar    1  UNL1        0.1415
      7 F           7.8414   -6.5202   25.4004 F       1  UNL1       -0.2041
      8 C           7.2410   -5.4901   27.7088 C.ar    1  UNL1        0.0328
      9 C           6.7066   -4.3492   28.5228 C.ar    1  UNL1        0.0406
     10 C           6.2383   -3.0972   27.8424 C.ar    1  UNL1        0.0181
     11 C           6.6406   -4.4602   30.0172 C.ar    1  UNL1        0.1807
     12 N           6.4621   -3.3229   30.9788 N.ar    1  UNL1       -0.1083
     13 N           6.4527   -3.8878   32.3684 N.ar    1  UNL1       -0.0229
     14 N           6.6254   -5.3743   32.2656 N.ar    1  UNL1       -0.0464
     15 N           6.7416   -5.7280   30.8125 N.ar    1  UNL1       -0.2388
     16 H           6.8628   -6.6334   30.4452 H       1  UNL1        0.1923
     17 C           8.9085    0.6567   26.3709 C.3     1  UNL1        0.0101
     18 C           8.1195   -0.6039   26.1752 C.3     1  UNL1        0.0856
     19 C           4.4599   -1.6731   25.0734 C.3     1  UNL1        0.1247
     20 C           4.2553   -1.9879   23.6211 C.ar    1  UNL1       -0.0018
     21 C           3.4944   -1.0354   22.7472 C.ar    1  UNL1        0.0005
     22 C           3.2898   -1.3502   21.2950 C.ar    1  UNL1        0.0369
     23 C           3.8463   -2.6175   20.7166 C.ar    1  UNL1        0.1468
     24 C           4.6073   -3.5699   21.5905 C.ar    1  UNL1        0.0369
     25 C           4.8118   -3.2551   23.0428 C.ar    1  UNL1        0.0005
     26 O           3.6418   -2.9322   19.2643 O.3     1  UNL1       -0.4045
     27 C           4.1475   -4.2262   18.6989 C.3     1  UNL1        0.5753
     28 F           4.6532   -5.5203   18.1335 F       1  UNL1       -0.1328
     29 F           2.8755   -4.9045   19.1134 F       1  UNL1       -0.1328
     30 F           5.4195   -3.5480   18.2844 F       1  UNL1       -0.1328
@<TRIPOS>BOND
     1    17    18    1
     2    18     1    1
     3     1     2    2
     4     1     3   am
     5     3    19    1
     6    19    20    1
     7    20    21   ar
     8    21    22   ar
     9    22    23   ar
    10    23    26    1
    11    26    27    1
    12    27    28    1
    13    27    29    1
    14    27    30    1
    15    23    24   ar
    16    24    25   ar
    17     3     4    1
    18     4     5   ar
    19     5     6   ar
    20     6     7    1
    21     6     8   ar
    22     8     9   ar
    23     9    11    1
    24    11    12   ar
    25    12    13   ar
    26    13    14   ar
    27    14    15   ar
    28     9    10   ar
    29    25    20   ar
    30    10     4   ar
    31    15    11   ar
    32    15    16    1
@<TRIPOS>MOLECULE
*****
 30 32 0 0 0
SMALL
GASTEIGER

@<TRIPOS>ATOM
      1 C           6.3887   -1.0189   17.7206 C.2     1  UNL1        0.2296
      2 O           6.7324   -0.0717   16.6095 O.2     1  UNL1       -0.2745
      3 N           4.9561   -1.2240   18.1151 N.am    1  UNL1       -0.2543
      4 C           4.6124   -2.1713   19.2263 C.ar    1  UNL1        0.0565
      5 C           4.2843   -3.6020   18.9175 C.ar    1  UNL1        0.0445
      6 C           3.9406   -4.5492   20.0286 C.ar    1  UNL1        0.1415
      7 F           3.6124   -5.9800   19.7199 F       1  UNL1       -0.2041
      8 C           3.9251   -4.0657   21.4485 C.ar    1  UNL1        0.0328
      9 C           4.2532   -2.6350   21.7572 C.ar    1  UNL1        0.0406
     10 C           4.5969   -1.6878   20.6461 C.ar    1  UNL1        0.0181
     11 C           4.2377   -2.1516   23.1771 C.ar    1  UNL1        0.1807
     12 N           3.3924   -1.0377   23.7200 N.ar    1  UNL1       -0.1083
     13 N           3.6970   -0.8947   25.1818 N.ar    1  UNL1       -0.0229
     14 N           4.7305   -1.9203   25.5423 N.ar    1  UNL1       -0.0464
     15 N           5.0647   -2.6971   24.3034 N.ar    1  UNL1       -0.2388
     16 H           5.7129   -3.4353   24.2404 H       1  UNL1        0.1923
     17 C           8.2364   -1.0936   19.5456 C.3     1  UNL1        0.0101
     18 C           7.4776   -1.7612   18.4372 C.3     1  UNL1        0.0856
     19 C           3.8672   -0.4818   17.3986 C.3     1  UNL1        0.1247
     20 C           2.9699    0.4503   18.1576 C.ar    1  UNL1       -0.0018
     21 C           3.3646    1.8853   18.3442 C.ar    1  UNL1        0.0005
     22 C           2.4673    2.8173   19.1031 C.ar    1  UNL1        0.0369
     23 C           1.1752    2.3144   19.6755 C.ar    1  UNL1        0.1468
     24 C           0.7805    0.8794   19.4889 C.ar    1  UNL1        0.0369
     25 C           1.6778   -0.0527   18.7299 C.ar    1  UNL1        0.0005
     26 O           0.2779    3.2465   20.4345 O.3     1  UNL1       -0.4045
     27 C          -1.2104    3.0705   20.3733 C.3     1  UNL1        0.5753
     28 F          -2.6989    2.8945   20.3120 F       1  UNL1       -0.1328
     29 F          -1.1992    3.4775   18.9296 F       1  UNL1       -0.1328
     30 F          -1.2217    2.6635   21.8169 F       1  UNL1       -0.1328
@<TRIPOS>BOND
     1    17    18    1
     2    18     1    1
     3     1     2    2
     4     1     3   am
     5     3    19    1
     6    19    20    1
     7    20    21   ar
     8    21    22   ar
     9    22    23   ar
    10    23    26    1
    11    26    27    1
    12    27    28    1
    13    27    29    1
    14    27    30    1
    15    23    24   ar
    16    24    25   ar
    17     3     4    1
    18     4     5   ar
    19     5     6   ar
    20     6     7    1
    21     6     8   ar
    22     8     9   ar
    23     9    11    1
    24    11    12   ar
    25    12    13   ar
    26    13    14   ar
    27    14    15   ar
    28     9    10   ar
    29    25    20   ar
    30    10     4   ar
    31    15    11   ar
    32    15    16    1
@<TRIPOS>MOLECULE
*****
 30 32 0 0 0
SMALL
GASTEIGER

@<TRIPOS>ATOM
      1 C           6.8947   -0.6210   25.3453 C.2     1  UNL1        0.2296
      2 O           6.5581    0.4298   24.3292 O.2     1  UNL1       -0.2745
      3 N           5.8567   -1.6200   25.7632 N.am    1  UNL1       -0.2543
      4 C           6.1933   -2.6709   26.7793 C.ar    1  UNL1        0.0565
      5 C           5.9799   -2.3986   28.2388 C.ar    1  UNL1        0.0445
      6 C           6.3165   -3.4495   29.2548 C.ar    1  UNL1        0.1415
      7 F           6.1030   -3.1773   30.7144 F       1  UNL1       -0.2041
      8 C           6.8666   -4.7726   28.8113 C.ar    1  UNL1        0.0328
      9 C           7.0801   -5.0449   27.3517 C.ar    1  UNL1        0.0406
     10 C           6.7434   -3.9940   26.3358 C.ar    1  UNL1        0.0181
     11 C           7.6302   -6.3680   26.9082 C.ar    1  UNL1        0.1807
     12 N           8.5143   -6.6014   25.7191 N.ar    1  UNL1       -0.1083
     13 N           8.8233   -8.0677   25.6519 N.ar    1  UNL1       -0.0229
     14 N           8.1302   -8.7405   26.7994 N.ar    1  UNL1       -0.0464
     15 N           7.3928   -7.6901   27.5759 N.ar    1  UNL1       -0.2388
     16 H           6.8486   -7.8417   28.3821 H       1  UNL1        0.1923
     17 C           9.4063   -1.2599   25.1604 C.3     1  UNL1        0.0101
     18 C           8.2694   -0.6730   25.9434 C.3     1  UNL1        0.0856
     19 C           4.4821   -1.5680   25.1652 C.3     1  UNL1        0.1247
     20 C           4.2760   -1.9362   23.7257 C.ar    1  UNL1       -0.0018
     21 C           3.4753   -1.0389   22.8292 C.ar    1  UNL1        0.0005
     22 C           3.2693   -1.4071   21.3898 C.ar    1  UNL1        0.0369
     23 C           3.8640   -2.6726   20.8469 C.ar    1  UNL1        0.1468
     24 C           4.6647   -3.5699   21.7433 C.ar    1  UNL1        0.0369
     25 C           4.8707   -3.2017   23.1827 C.ar    1  UNL1        0.0005
     26 O           3.6579   -3.0408   19.4074 O.3     1  UNL1       -0.4045
     27 C           4.2105   -4.3303   18.8765 C.3     1  UNL1        0.5753
     28 F           4.7632   -5.6198   18.3457 F       1  UNL1       -0.1328
     29 F           5.4630   -3.6203   18.4558 F       1  UNL1       -0.1328
     30 F           2.9580   -5.0403   19.2973 F       1  UNL1       -0.1328
@<TRIPOS>BOND
     1    17    18    1
     2    18     1    1
     3     1     2    2
     4     1     3   am
     5     3    19    1
     6    19    20    1
     7    20    21   ar
     8    21    22   ar
     9    22    23   ar
    10    23    26    1
    11    26    27    1
    12    27    28    1
    13    27    29    1
    14    27    30    1
    15    23    24   ar
    16    24    25   ar
    17     3     4    1
    18     4     5   ar
    19     5     6   ar
    20     6     7    1
    21     6     8   ar
    22     8     9   ar
    23     9    11    1
    24    11    12   ar
    25    12    13   ar
    26    13    14   ar
    27    14    15   ar
    28     9    10   ar
    29    25    20   ar
    30    10     4   ar
    31    15    11   ar
    32    15    16    1
@<TRIPOS>MOLECULE
*****
 30 32 0 0 0
SMALL
GASTEIGER

@<TRIPOS>ATOM
      1 C           4.6494   -3.6186   21.0212 C.2     1  UNL1        0.2296
      2 O           5.3706   -4.4246   22.0605 O.2     1  UNL1       -0.2745
      3 N           4.7584   -2.1226   21.0234 N.am    1  UNL1       -0.2543
      4 C           4.0372   -1.3165   19.9840 C.ar    1  UNL1        0.0565
      5 C           4.4996   -1.3465   18.5574 C.ar    1  UNL1        0.0445
      6 C           3.7784   -0.5406   17.5181 C.ar    1  UNL1        0.1415
      7 F           4.2408   -0.5705   16.0915 F       1  UNL1       -0.2041
      8 C           2.5947    0.2954   17.9054 C.ar    1  UNL1        0.0328
      9 C           2.1322    0.3254   19.3320 C.ar    1  UNL1        0.0406
     10 C           2.8535   -0.4806   20.3713 C.ar    1  UNL1        0.0181
     11 C           0.9485    1.1614   19.7193 C.ar    1  UNL1        0.1807
     12 N           0.5450    2.4628   19.0919 N.ar    1  UNL1       -0.1083
     13 N          -0.6924    2.9485   19.7869 N.ar    1  UNL1       -0.0229
     14 N          -1.0537    1.9473   20.8438 N.ar    1  UNL1       -0.0464
     15 N          -0.0395    0.8428   20.8020 N.ar    1  UNL1       -0.2388
     16 H          -0.0249    0.0483   21.3832 H       1  UNL1        0.1923
     17 C           4.4858   -5.0714   18.8735 C.3     1  UNL1        0.0101
     18 C           3.8192   -4.3086   19.9797 C.3     1  UNL1        0.0856
     19 C           5.5886   -1.4325   22.0648 C.3     1  UNL1        0.1247
     20 C           4.9309   -0.8344   23.2731 C.ar    1  UNL1       -0.0018
     21 C           4.7922    0.6544   23.3917 C.ar    1  UNL1        0.0005
     22 C           4.1345    1.2524   24.5999 C.ar    1  UNL1        0.0369
     23 C           3.6156    0.3616   25.6895 C.ar    1  UNL1        0.1468
     24 C           3.7544   -1.1272   25.5709 C.ar    1  UNL1        0.0369
     25 C           4.4120   -1.7252   24.3627 C.ar    1  UNL1        0.0005
     26 O           2.9579    0.9597   26.8977 O.3     1  UNL1       -0.4045
     27 C           1.4751    0.8325   27.0847 C.3     1  UNL1        0.5753
     28 F          -0.0078    0.7053   27.2717 F       1  UNL1       -0.1328
     29 F           1.2500    1.7820   25.9456 F       1  UNL1       -0.1328
     30 F           1.7002   -0.1170   28.2239 F       1  UNL1       -0.1328
@<TRIPOS>BOND
     1    17    18    1
     2    18     1    1
     3     1     2    2
     4     1     3   am
     5     3    19    1
     6    19    20    1
     7    20    21   ar
     8    21    22   ar
     9    22    23   ar
    10    23    26    1
    11    26    27    1
    12    27    28    1
    13    27    29    1
    14    27    30    1
    15    23    24   ar
    16    24    25   ar
    17     3     4    1
    18     4     5   ar
    19     5     6   ar
    20     6     7    1
    21     6     8   ar
    22     8     9   ar
    23     9    11    1
    24    11    12   ar
    25    12    13   ar
    26    13    14   ar
    27    14    15   ar
    28     9    10   ar
    29    25    20   ar
    30    10     4   ar
    31    15    11   ar
    32    15    16    1
@<TRIPOS>MOLECULE
*****
 30 32 0 0 0
SMALL
GASTEIGER

@<TRIPOS>ATOM
      1 C           4.0895   -0.9647   18.2560 C.2     1  UNL1        0.2296
      2 O           4.9376   -1.8205   17.3626 O.2     1  UNL1       -0.2745
      3 N           3.4323   -1.5629   19.4644 N.am    1  UNL1       -0.2543
      4 C           2.5842   -0.7070   20.3578 C.ar    1  UNL1        0.0565
      5 C           1.3475   -0.0530   19.8166 C.ar    1  UNL1        0.0445
      6 C           0.4994    0.8028   20.7100 C.ar    1  UNL1        0.1415
      7 F          -0.7373    1.4568   20.1687 F       1  UNL1       -0.2041
      8 C           0.8880    1.0048   22.1446 C.ar    1  UNL1        0.0328
      9 C           2.1246    0.3508   22.6859 C.ar    1  UNL1        0.0406
     10 C           2.9727   -0.5050   21.7925 C.ar    1  UNL1        0.0181
     11 C           2.5132    0.5527   24.1206 C.ar    1  UNL1        0.1807
     12 N           2.5666    1.8662   24.8431 N.ar    1  UNL1       -0.1083
     13 N           3.0030    1.6019   26.2537 N.ar    1  UNL1       -0.0229
     14 N           3.2193    0.1251   26.4029 N.ar    1  UNL1       -0.0464
     15 N           2.9166   -0.5233   25.0846 N.ar    1  UNL1       -0.2388
     16 H           2.9729   -1.4861   24.8868 H       1  UNL1        0.1923
     17 C           4.8991    1.4985   18.4213 C.3     1  UNL1        0.0101
     18 C           3.8986    0.4895   17.9410 C.3     1  UNL1        0.0856
     19 C           3.6232   -3.0169   19.7794 C.3     1  UNL1        0.1247
     20 C           4.7536   -3.4503   20.6653 C.ar    1  UNL1       -0.0018
     21 C           4.5256   -3.6337   22.1364 C.ar    1  UNL1        0.0005
     22 C           5.6559   -4.0671   23.0221 C.ar    1  UNL1        0.0369
     23 C           7.0141   -4.3171   22.4367 C.ar    1  UNL1        0.1468
     24 C           7.2421   -4.1338   20.9655 C.ar    1  UNL1        0.0369
     25 C           6.1118   -3.7004   20.0798 C.ar    1  UNL1        0.0005
     26 O           8.1445   -4.7505   23.3225 O.3     1  UNL1       -0.4045
     27 C           8.2096   -6.1650   23.8173 C.3     1  UNL1        0.5753
     28 F           8.2748   -7.5796   24.3122 F       1  UNL1       -0.1328
     29 F           8.7782   -6.5999   22.4992 F       1  UNL1       -0.1328
     30 F           7.6410   -5.7301   25.1355 F       1  UNL1       -0.1328
@<TRIPOS>BOND
     1    17    18    1
     2    18     1    1
     3     1     2    2
     4     1     3   am
     5     3    19    1
     6    19    20    1
     7    20    21   ar
     8    21    22   ar
     9    22    23   ar
    10    23    26    1
    11    26    27    1
    12    27    28    1
    13    27    29    1
    14    27    30    1
    15    23    24   ar
    16    24    25   ar
    17     3     4    1
    18     4     5   ar
    19     5     6   ar
    20     6     7    1
    21     6     8   ar
    22     8     9   ar
    23     9    11    1
    24    11    12   ar
    25    12    13   ar
    26    13    14   ar
    27    14    15   ar
    28     9    10   ar
    29    25    20   ar
    30    10     4   ar
    31    15    11   ar
    32    15    16    1
@<TRIPOS>MOLECULE
*****
 30 32 0 0 0
SMALL
GASTEIGER

@<TRIPOS>ATOM
      1 C           6.8096   -1.9391   18.8155 C.2     1  UNL1        0.2296
      2 O           6.6455   -1.9944   17.3255 O.2     1  UNL1       -0.2745
      3 N           5.6132   -2.0879   19.7079 N.am    1  UNL1       -0.2543
      4 C           5.7774   -2.0326   21.1979 C.ar    1  UNL1        0.0565
      5 C           5.5088   -0.7542   21.9351 C.ar    1  UNL1        0.0445
      6 C           5.6730   -0.6990   23.4250 C.ar    1  UNL1        0.1415
      7 F           5.4045    0.5795   24.1623 F       1  UNL1       -0.2041
      8 C           6.1058   -1.9222   24.1777 C.ar    1  UNL1        0.0328
      9 C           6.3743   -3.2006   23.4405 C.ar    1  UNL1        0.0406
     10 C           6.2101   -3.2558   21.9506 C.ar    1  UNL1        0.0181
     11 C           6.8071   -4.4237   24.1932 C.ar    1  UNL1        0.1807
     12 N           7.6085   -5.5634   23.6375 N.ar    1  UNL1       -0.1083
     13 N           7.8111   -6.5661   24.7346 N.ar    1  UNL1       -0.0229
     14 N           7.1349   -6.0461   25.9684 N.ar    1  UNL1       -0.0464
     15 N           6.5143   -4.7220   25.6338 N.ar    1  UNL1       -0.2388
     16 H           6.0045   -4.1494   26.2513 H       1  UNL1        0.1923
     17 C           9.2257   -2.7888   19.2523 C.3     1  UNL1        0.0101
     18 C           8.1703   -1.7351   19.4131 C.3     1  UNL1        0.0856
     19 C           4.2526   -2.2918   19.1103 C.3     1  UNL1        0.1247
     20 C           3.2354   -1.1908   19.1677 C.ar    1  UNL1       -0.0018
     21 C           2.1265   -1.2460   20.1762 C.ar    1  UNL1        0.0005
     22 C           1.1094   -0.1450   20.2335 C.ar    1  UNL1        0.0369
     23 C           1.2014    1.0112   19.2823 C.ar    1  UNL1        0.1468
     24 C           2.3103    1.0664   18.2738 C.ar    1  UNL1        0.0369
     25 C           3.3274   -0.0346   18.2165 C.ar    1  UNL1        0.0005
     26 O           0.1842    2.1123   19.3397 O.3     1  UNL1       -0.4045
     27 C          -0.1089    2.7955   20.6425 C.3     1  UNL1        0.5753
     28 F          -0.4020    3.4787   21.9454 F       1  UNL1       -0.1328
     29 F          -1.5659    2.4780   20.4812 F       1  UNL1       -0.1328
     30 F           1.3482    3.1129   20.8038 F       1  UNL1       -0.1328
@<TRIPOS>BOND
     1    17    18    1
     2    18     1    1
     3     1     2    2
     4     1     3   am
     5     3    19    1
     6    19    20    1
     7    20    21   ar
     8    21    22   ar
     9    22    23   ar
    10    23    26    1
    11    26    27    1
    12    27    28    1
    13    27    29    1
    14    27    30    1
    15    23    24   ar
    16    24    25   ar
    17     3     4    1
    18     4     5   ar
    19     5     6   ar
    20     6     7    1
    21     6     8   ar
    22     8     9   ar
    23     9    11    1
    24    11    12   ar
    25    12    13   ar
    26    13    14   ar
    27    14    15   ar
    28     9    10   ar
    29    25    20   ar
    30    10     4   ar
    31    15    11   ar
    32    15    16    1
