@<TRIPOS>MOLECULE
*****
 35 38 0 0 0
SMALL
GASTEIGER

@<TRIPOS>ATOM
      1 N           4.8651   -0.2784   30.4369 N.am    1  UNL1       -0.2765
      2 C           3.7960   -0.5564   31.4516 C.2     1  UNL1        0.3050
      3 O           2.4398   -1.0167   31.0053 O.2     1  UNL1       -0.2646
      4 H           5.7552    0.0236   30.7299 H       1  UNL1        0.1553
      5 C           4.0045   -0.8252   26.0540 C.ar    1  UNL1       -0.0224
      6 C           3.4197    0.3416   26.7933 C.ar    1  UNL1       -0.0030
      7 C           3.7066    0.5238   28.2543 C.ar    1  UNL1        0.0144
      8 C           4.5783   -0.4607   28.9759 C.ar    1  UNL1        0.0506
      9 C           5.1630   -1.6275   28.2367 C.ar    1  UNL1        0.0144
     10 C           4.8761   -1.8097   26.7757 C.ar    1  UNL1       -0.0030
     11 C           3.1439   -1.3720   21.6710 C.3     1  UNL1        0.0056
     12 C           4.1342   -2.2649   22.3580 C.3     1  UNL1        0.0007
     13 C           4.4211   -2.0826   23.8190 C.3     1  UNL1        0.0044
     14 C           3.7176   -1.0075   24.5930 C.3     1  UNL1        0.0223
     15 C           2.7273   -0.1146   23.9060 C.3     1  UNL1        0.0044
     16 C           2.4404   -0.2968   22.4450 C.3     1  UNL1        0.0007
     17 C           2.8570   -1.5542   20.2100 C.3     1  UNL1        0.0417
     18 O           4.9771   -2.0724   18.8005 O.co2   1  UNL1       -0.5492
     19 C           3.6750   -2.5152   19.3993 C.2     1  UNL1        0.0503
     20 O           3.1909   -3.9191   19.1873 O.co2   1  UNL1       -0.5492
     21 C           4.0828   -0.3742   32.9126 C.ar    1  UNL1        0.3052
     22 N           4.4125   -1.4640   33.8890 N.ar    1  UNL1       -0.1010
     23 N           4.6238   -0.8335   35.2336 N.ar    1  UNL1       -0.0919
     24 C           4.4248    0.6461   35.0881 C.ar    1  UNL1        0.3126
     25 O           4.0904    0.9301   33.6536 O.2     1  UNL1       -0.4006
     26 N           4.5399    1.6633   36.1845 N.pl3   1  UNL1       -0.2664
     27 H           5.3729    2.1764   36.2945 H       1  UNL1        0.1566
     28 C           3.3858    1.8987   37.1134 C.ar    1  UNL1        0.0541
     29 C           2.6121    3.1815   37.0382 C.ar    1  UNL1        0.0172
     30 C           1.4581    3.4170   37.9670 C.ar    1  UNL1        0.0332
     31 C           1.0777    2.3695   38.9711 C.ar    1  UNL1        0.1675
     32 F          -0.0763    2.6049   39.8999 F       1  UNL1       -0.2018
     33 C           1.8514    1.0867   39.0463 C.ar    1  UNL1        0.1686
     34 F           1.4711    0.0391   40.0503 F       1  UNL1       -0.2018
     35 C           3.0054    0.8512   38.1174 C.ar    1  UNL1        0.0467
@<TRIPOS>UNITY_ATOM_ATTR
18 1
charge -1
@<TRIPOS>BOND
     1    18    19   ar
     2    19    20   ar
     3    19    17    1
     4    11    17    1
     5    11    12    1
     6    12    13    1
     7    13    14    1
     8    14     5    1
     9     5     6   ar
    10     6     7   ar
    11     7     8   ar
    12     8     1    1
    13     1     2   am
    14     2     3    2
    15     2    21    1
    16    21    22   ar
    17    22    23   ar
    18    23    24   ar
    19    24    26    1
    20    26    28    1
    21    28    29   ar
    22    29    30   ar
    23    30    31   ar
    24    31    32    1
    25    31    33   ar
    26    33    34    1
    27    33    35   ar
    28    24    25   ar
    29     8     9   ar
    30     9    10   ar
    31    14    15    1
    32    15    16    1
    33    16    11    1
    34    10     5   ar
    35    25    21   ar
    36    35    28   ar
    37     1     4    1
    38    26    27    1
@<TRIPOS>MOLECULE
*****
 35 38 0 0 0
SMALL
GASTEIGER

@<TRIPOS>ATOM
      1 N          -0.1993    0.7000   20.7702 N.am    1  UNL1       -0.2765
      2 C          -0.1457    2.1567   20.4166 C.2     1  UNL1        0.3050
      3 O           1.1786    2.8291   20.2061 O.2     1  UNL1       -0.2646
      4 H          -1.0685    0.2587   20.9084 H       1  UNL1        0.1553
      5 C           3.6123   -1.6531   21.1994 C.ar    1  UNL1       -0.0224
      6 C           3.1300   -0.7938   22.3303 C.ar    1  UNL1       -0.0030
      7 C           1.8595   -0.0094   22.1872 C.ar    1  UNL1        0.0144
      8 C           1.0712   -0.0844   20.9133 C.ar    1  UNL1        0.0506
      9 C           1.5535   -0.9437   19.7824 C.ar    1  UNL1        0.0144
     10 C           2.8241   -1.7280   19.9255 C.ar    1  UNL1       -0.0030
     11 C           7.4240   -4.0061   21.6286 C.3     1  UNL1        0.0056
     12 C           6.4163   -4.0016   22.7396 C.3     1  UNL1        0.0007
     13 C           5.1457   -3.2173   22.5965 C.3     1  UNL1        0.0044
     14 C           4.8829   -2.4374   21.3425 C.3     1  UNL1        0.0223
     15 C           5.8907   -2.4419   20.2315 C.3     1  UNL1        0.0044
     16 C           7.1612   -3.2263   20.3745 C.3     1  UNL1        0.0007
     17 C           8.6946   -4.7905   21.7717 C.3     1  UNL1        0.0417
     18 O           8.4529   -7.1540   22.8230 O.co2   1  UNL1       -0.5492
     19 C           8.8756   -5.7192   22.9355 C.2     1  UNL1        0.0503
     20 O           9.4794   -5.2132   24.2120 O.co2   1  UNL1       -0.5492
     21 C          -1.4163    2.9410   20.2736 C.ar    1  UNL1        0.3052
     22 N          -1.5481    4.3005   19.6535 N.ar    1  UNL1       -0.1010
     23 N          -2.9914    4.7033   19.7222 N.ar    1  UNL1       -0.0919
     24 C          -3.7516    3.5928   20.3847 C.ar    1  UNL1        0.3126
     25 O          -2.7781    2.5036   20.7255 O.2     1  UNL1       -0.4006
     26 N          -5.2263    3.5746   20.6584 N.pl3   1  UNL1       -0.2664
     27 H          -5.8507    3.2503   19.9698 H       1  UNL1        0.1566
     28 C          -5.7495    4.0505   21.9812 C.ar    1  UNL1        0.0541
     29 C          -6.9471    4.9521   22.0335 C.ar    1  UNL1        0.0172
     30 C          -7.4704    5.4281   23.3563 C.ar    1  UNL1        0.0332
     31 C          -6.7961    5.0023   24.6267 C.ar    1  UNL1        0.1675
     32 F          -7.3193    5.4782   25.9494 F       1  UNL1       -0.2018
     33 C          -5.5985    4.1007   24.5744 C.ar    1  UNL1        0.1686
     34 F          -4.9241    3.6749   25.8448 F       1  UNL1       -0.2018
     35 C          -5.0752    3.6248   23.2516 C.ar    1  UNL1        0.0467
@<TRIPOS>UNITY_ATOM_ATTR
18 1
charge -1
@<TRIPOS>BOND
     1    18    19   ar
     2    19    20   ar
     3    19    17    1
     4    11    17    1
     5    11    12    1
     6    12    13    1
     7    13    14    1
     8    14     5    1
     9     5     6   ar
    10     6     7   ar
    11     7     8   ar
    12     8     1    1
    13     1     2   am
    14     2     3    2
    15     2    21    1
    16    21    22   ar
    17    22    23   ar
    18    23    24   ar
    19    24    26    1
    20    26    28    1
    21    28    29   ar
    22    29    30   ar
    23    30    31   ar
    24    31    32    1
    25    31    33   ar
    26    33    34    1
    27    33    35   ar
    28    24    25   ar
    29     8     9   ar
    30     9    10   ar
    31    14    15    1
    32    15    16    1
    33    16    11    1
    34    10     5   ar
    35    25    21   ar
    36    35    28   ar
    37     1     4    1
    38    26    27    1
@<TRIPOS>MOLECULE
*****
 35 38 0 0 0
SMALL
GASTEIGER

@<TRIPOS>ATOM
      1 N           1.5249    0.3117   25.2850 N.am    1  UNL1       -0.2765
      2 C           2.9016    0.5521   25.8298 C.2     1  UNL1        0.3050
      3 O           3.1719    1.7583   26.6797 O.2     1  UNL1       -0.2646
      4 H           1.3476   -0.4799   24.7273 H       1  UNL1        0.1553
      5 C          -1.7946    3.2088   26.2000 C.ar    1  UNL1       -0.0224
      6 C          -1.3205    2.2539   27.2551 C.ar    1  UNL1       -0.0030
      7 C          -0.2140    1.2882   26.9501 C.ar    1  UNL1        0.0144
      8 C           0.4184    1.2774   25.5900 C.ar    1  UNL1        0.0506
      9 C          -0.0557    2.2323   24.5349 C.ar    1  UNL1        0.0144
     10 C          -1.1622    3.1980   24.8399 C.ar    1  UNL1       -0.0030
     11 C          -5.1142    6.1060   27.1150 C.3     1  UNL1        0.0056
     12 C          -3.7200    6.3882   27.5909 C.3     1  UNL1        0.0007
     13 C          -2.6135    5.4225   27.2859 C.3     1  UNL1        0.0044
     14 C          -2.9011    4.1746   26.5050 C.3     1  UNL1        0.0223
     15 C          -4.2953    3.8924   26.0291 C.3     1  UNL1        0.0044
     16 C          -5.4018    4.8581   26.3341 C.3     1  UNL1        0.0007
     17 C          -6.2207    7.0717   27.4200 C.3     1  UNL1        0.0417
     18 O          -8.0856    6.1023   28.9472 O.co2   1  UNL1       -0.5492
     19 C          -7.6236    6.5724   27.5997 C.2     1  UNL1        0.0503
     20 O          -8.5647    6.5431   26.4320 O.co2   1  UNL1       -0.5492
     21 C           4.0081   -0.4136   25.5248 C.ar    1  UNL1        0.3052
     22 N           5.4163   -0.3308   26.0350 N.ar    1  UNL1       -0.1010
     23 N           6.1792   -1.4977   25.4816 N.ar    1  UNL1       -0.0919
     24 C           5.2426   -2.3017   24.6294 C.ar    1  UNL1        0.3126
     25 O           3.9008   -1.6318   24.6560 O.2     1  UNL1       -0.4006
     26 N           5.5872   -3.5556   23.8817 N.pl3   1  UNL1       -0.2664
     27 H           5.8363   -4.3703   24.3752 H       1  UNL1        0.1566
     28 C           5.5524   -3.5682   22.3821 C.ar    1  UNL1        0.0541
     29 C           6.7681   -3.1671   21.6003 C.ar    1  UNL1        0.0172
     30 C           6.7333   -3.1797   20.1007 C.ar    1  UNL1        0.0332
     31 C           5.4828   -3.5935   19.3830 C.ar    1  UNL1        0.1675
     32 F           5.4480   -3.6061   17.8835 F       1  UNL1       -0.2018
     33 C           4.2672   -3.9947   20.1648 C.ar    1  UNL1        0.1686
     34 F           3.0167   -4.4085   19.4472 F       1  UNL1       -0.2018
     35 C           4.3020   -3.9820   21.6644 C.ar    1  UNL1        0.0467
@<TRIPOS>UNITY_ATOM_ATTR
18 1
charge -1
@<TRIPOS>BOND
     1    18    19   ar
     2    19    20   ar
     3    19    17    1
     4    11    17    1
     5    11    12    1
     6    12    13    1
     7    13    14    1
     8    14     5    1
     9     5     6   ar
    10     6     7   ar
    11     7     8   ar
    12     8     1    1
    13     1     2   am
    14     2     3    2
    15     2    21    1
    16    21    22   ar
    17    22    23   ar
    18    23    24   ar
    19    24    26    1
    20    26    28    1
    21    28    29   ar
    22    29    30   ar
    23    30    31   ar
    24    31    32    1
    25    31    33   ar
    26    33    34    1
    27    33    35   ar
    28    24    25   ar
    29     8     9   ar
    30     9    10   ar
    31    14    15    1
    32    15    16    1
    33    16    11    1
    34    10     5   ar
    35    25    21   ar
    36    35    28   ar
    37     1     4    1
    38    26    27    1
@<TRIPOS>MOLECULE
*****
 35 38 0 0 0
SMALL
GASTEIGER

@<TRIPOS>ATOM
      1 N           3.3391    1.1579   29.1205 N.am    1  UNL1       -0.2765
      2 C           2.4538    0.5377   30.1605 C.2     1  UNL1        0.3050
      3 O           1.6156   -0.6577   29.8159 O.2     1  UNL1       -0.2646
      4 H           3.8892    1.9424   29.3467 H       1  UNL1        0.1553
      5 C           3.4805   -0.5671   24.9667 C.ar    1  UNL1       -0.0224
      6 C           2.6370    0.6407   25.2489 C.ar    1  UNL1       -0.0030
      7 C           2.5898    1.2157   26.6335 C.ar    1  UNL1        0.0144
      8 C           3.3862    0.5829   27.7359 C.ar    1  UNL1        0.0506
      9 C           4.2298   -0.6249   27.4537 C.ar    1  UNL1        0.0144
     10 C           4.2769   -1.1999   26.0691 C.ar    1  UNL1       -0.0030
     11 C           3.6219   -2.2921   20.8129 C.3     1  UNL1        0.0056
     12 C           4.4074   -2.9332   21.9183 C.3     1  UNL1        0.0007
     13 C           4.3602   -2.3581   23.3029 C.3     1  UNL1        0.0044
     14 C           3.5276   -1.1421   23.5821 C.3     1  UNL1        0.0223
     15 C           2.7421   -0.5011   22.4767 C.3     1  UNL1        0.0044
     16 C           2.7893   -1.0761   21.0920 C.3     1  UNL1        0.0007
     17 C           3.6690   -2.8672   19.4283 C.3     1  UNL1        0.0417
     18 O           3.7684   -0.8301   17.8187 O.co2   1  UNL1       -0.5492
     19 C           4.3540   -2.1144   18.3265 C.2     1  UNL1        0.0503
     20 O           5.6247   -2.6458   17.7323 O.co2   1  UNL1       -0.5492
     21 C           2.4067    1.1127   31.5451 C.ar    1  UNL1        0.3052
     22 N           1.2634    1.8770   32.1439 N.ar    1  UNL1       -0.1010
     23 N           1.6447    2.2610   33.5429 N.ar    1  UNL1       -0.0919
     24 C           3.0237    1.7341   33.8087 C.ar    1  UNL1        0.3126
     25 O           3.4947    1.0243   32.5740 O.2     1  UNL1       -0.4006
     26 N           3.7961    1.8895   35.0851 N.pl3   1  UNL1       -0.2664
     27 H           4.7804    1.8733   35.0699 H       1  UNL1        0.1566
     28 C           3.0690    2.0696   36.3847 C.ar    1  UNL1        0.0541
     29 C           2.3577    3.3581   36.6738 C.ar    1  UNL1        0.0172
     30 C           1.6306    3.5382   37.9734 C.ar    1  UNL1        0.0332
     31 C           1.6147    2.4297   38.9838 C.ar    1  UNL1        0.1675
     32 F           0.8876    2.6097   40.2833 F       1  UNL1       -0.2018
     33 C           2.3260    1.1411   38.6946 C.ar    1  UNL1        0.1686
     34 F           2.3102    0.0325   39.7050 F       1  UNL1       -0.2018
     35 C           3.0531    0.9610   37.3951 C.ar    1  UNL1        0.0467
@<TRIPOS>UNITY_ATOM_ATTR
18 1
charge -1
@<TRIPOS>BOND
     1    18    19   ar
     2    19    20   ar
     3    19    17    1
     4    11    17    1
     5    11    12    1
     6    12    13    1
     7    13    14    1
     8    14     5    1
     9     5     6   ar
    10     6     7   ar
    11     7     8   ar
    12     8     1    1
    13     1     2   am
    14     2     3    2
    15     2    21    1
    16    21    22   ar
    17    22    23   ar
    18    23    24   ar
    19    24    26    1
    20    26    28    1
    21    28    29   ar
    22    29    30   ar
    23    30    31   ar
    24    31    32    1
    25    31    33   ar
    26    33    34    1
    27    33    35   ar
    28    24    25   ar
    29     8     9   ar
    30     9    10   ar
    31    14    15    1
    32    15    16    1
    33    16    11    1
    34    10     5   ar
    35    25    21   ar
    36    35    28   ar
    37     1     4    1
    38    26    27    1
@<TRIPOS>MOLECULE
*****
 35 38 0 0 0
SMALL
GASTEIGER

@<TRIPOS>ATOM
      1 N           4.0849    0.2969   29.7207 N.am    1  UNL1       -0.2765
      2 C           3.1361   -0.1228   30.8040 C.2     1  UNL1        0.3050
      3 O           1.7567   -0.5952   30.4513 O.2     1  UNL1       -0.2646
      4 H           4.9902    0.6069   29.9522 H       1  UNL1        0.1553
      5 C           2.7936    0.1392   25.4129 C.ar    1  UNL1       -0.0224
      6 C           3.6718   -0.9404   25.9726 C.ar    1  UNL1       -0.0030
      7 C           4.1022   -0.8878   27.4085 C.ar    1  UNL1        0.0144
      8 C           3.6545    0.2443   28.2848 C.ar    1  UNL1        0.0506
      9 C           2.7763    1.3238   27.7250 C.ar    1  UNL1        0.0144
     10 C           2.3458    1.2713   26.2891 C.ar    1  UNL1       -0.0030
     11 C           1.5022   -0.0186   21.1050 C.3     1  UNL1        0.0056
     12 C           2.6791   -0.8267   21.5653 C.3     1  UNL1        0.0007
     13 C           3.1095   -0.7742   23.0012 C.3     1  UNL1        0.0044
     14 C           2.3631    0.0866   23.9769 C.3     1  UNL1        0.0223
     15 C           1.1863    0.8947   23.5166 C.3     1  UNL1        0.0044
     16 C           0.7558    0.8421   22.0807 C.3     1  UNL1        0.0007
     17 C           1.0718   -0.0712   19.6691 C.3     1  UNL1        0.0417
     18 O           0.6764    1.9898   18.1374 O.co2   1  UNL1       -0.5492
     19 C           1.5935    0.9404   18.6922 C.2     1  UNL1        0.0503
     20 O           3.0324    0.9027   18.2700 O.co2   1  UNL1       -0.5492
     21 C           3.5665   -0.0703   32.2399 C.ar    1  UNL1        0.3052
     22 N           3.8820   -1.2510   33.1096 N.ar    1  UNL1       -0.1010
     23 N           4.2675   -0.7382   34.4655 N.ar    1  UNL1       -0.0919
     24 C           4.1904    0.7595   34.4338 C.ar    1  UNL1        0.3126
     25 O           3.7571    1.1724   33.0583 O.2     1  UNL1       -0.4006
     26 N           4.4933    1.6824   35.5768 N.pl3   1  UNL1       -0.2664
     27 H           5.3613    2.1449   35.6193 H       1  UNL1        0.1566
     28 C           3.4736    1.9005   36.6551 C.ar    1  UNL1        0.0541
     29 C           2.6974    3.1831   36.7050 C.ar    1  UNL1        0.0172
     30 C           1.6778    3.4012   37.7834 C.ar    1  UNL1        0.0332
     31 C           1.4343    2.3368   38.8118 C.ar    1  UNL1        0.1675
     32 F           0.4147    2.5549   39.8901 F       1  UNL1       -0.2018
     33 C           2.2105    1.0542   38.7619 C.ar    1  UNL1        0.1686
     34 F           1.9672   -0.0103   39.7903 F       1  UNL1       -0.2018
     35 C           3.2302    0.8361   37.6836 C.ar    1  UNL1        0.0467
@<TRIPOS>UNITY_ATOM_ATTR
18 1
charge -1
@<TRIPOS>BOND
     1    18    19   ar
     2    19    20   ar
     3    19    17    1
     4    11    17    1
     5    11    12    1
     6    12    13    1
     7    13    14    1
     8    14     5    1
     9     5     6   ar
    10     6     7   ar
    11     7     8   ar
    12     8     1    1
    13     1     2   am
    14     2     3    2
    15     2    21    1
    16    21    22   ar
    17    22    23   ar
    18    23    24   ar
    19    24    26    1
    20    26    28    1
    21    28    29   ar
    22    29    30   ar
    23    30    31   ar
    24    31    32    1
    25    31    33   ar
    26    33    34    1
    27    33    35   ar
    28    24    25   ar
    29     8     9   ar
    30     9    10   ar
    31    14    15    1
    32    15    16    1
    33    16    11    1
    34    10     5   ar
    35    25    21   ar
    36    35    28   ar
    37     1     4    1
    38    26    27    1
@<TRIPOS>MOLECULE
*****
 35 38 0 0 0
SMALL
GASTEIGER

@<TRIPOS>ATOM
      1 N           1.8163    0.8184   31.0030 N.am    1  UNL1       -0.2765
      2 C           2.8877   -0.2066   30.7762 C.2     1  UNL1        0.3050
      3 O           3.1539   -0.7197   29.3920 O.2     1  UNL1       -0.2646
      4 H           1.6416    1.1551   31.9115 H       1  UNL1        0.1553
      5 C          -0.5995    2.3541   27.5309 C.ar    1  UNL1       -0.0224
      6 C           0.4883    3.2017   28.1211 C.ar    1  UNL1       -0.0030
      7 C           1.2935    2.6898   29.2784 C.ar    1  UNL1        0.0144
      8 C           1.0111    1.3303   29.8457 C.ar    1  UNL1        0.0506
      9 C          -0.0767    0.4826   29.2555 C.ar    1  UNL1        0.0144
     10 C          -0.8819    0.9945   28.0982 C.ar    1  UNL1       -0.0030
     11 C          -3.0153    3.8898   24.0588 C.3     1  UNL1        0.0056
     12 C          -1.6156    3.3974   23.8392 C.3     1  UNL1        0.0007
     13 C          -0.8103    2.8855   24.9965 C.3     1  UNL1        0.0044
     14 C          -1.4047    2.8660   26.3736 C.3     1  UNL1        0.0223
     15 C          -2.8044    3.3584   26.5932 C.3     1  UNL1        0.0044
     16 C          -3.6097    3.8704   25.4358 C.3     1  UNL1        0.0007
     17 C          -3.8205    4.4017   22.9015 C.3     1  UNL1        0.0417
     18 O          -4.6424    2.4905   21.3452 O.co2   1  UNL1       -0.5492
     19 C          -4.9380    3.5732   22.3405 C.2     1  UNL1        0.0503
     20 O          -6.3511    3.8273   22.7747 O.co2   1  UNL1       -0.5492
     21 C           3.6930   -0.7185   31.9336 C.ar    1  UNL1        0.3052
     22 N           3.6573   -2.1133   32.4842 N.ar    1  UNL1       -0.1010
     23 N           4.6176   -2.1823   33.6345 N.ar    1  UNL1       -0.0919
     24 C           5.2468   -0.8302   33.7948 C.ar    1  UNL1        0.3126
     25 O           4.6754    0.0746   32.7436 O.2     1  UNL1       -0.4006
     26 N           6.2681   -0.4495   34.8253 N.pl3   1  UNL1       -0.2664
     27 H           7.2060   -0.7276   34.7150 H       1  UNL1        0.1566
     28 C           5.8604    0.3549   36.0240 C.ar    1  UNL1        0.0541
     29 C           6.7918    1.3873   36.5865 C.ar    1  UNL1        0.0172
     30 C           6.3840    2.1917   37.7852 C.ar    1  UNL1        0.0332
     31 C           5.0449    1.9637   38.4213 C.ar    1  UNL1        0.1675
     32 F           4.6372    2.7680   39.6199 F       1  UNL1       -0.2018
     33 C           4.1135    0.9312   37.8587 C.ar    1  UNL1        0.1686
     34 F           2.7743    0.7031   38.4947 F       1  UNL1       -0.2018
     35 C           4.5212    0.1269   36.6601 C.ar    1  UNL1        0.0467
@<TRIPOS>UNITY_ATOM_ATTR
18 1
charge -1
@<TRIPOS>BOND
     1    18    19   ar
     2    19    20   ar
     3    19    17    1
     4    11    17    1
     5    11    12    1
     6    12    13    1
     7    13    14    1
     8    14     5    1
     9     5     6   ar
    10     6     7   ar
    11     7     8   ar
    12     8     1    1
    13     1     2   am
    14     2     3    2
    15     2    21    1
    16    21    22   ar
    17    22    23   ar
    18    23    24   ar
    19    24    26    1
    20    26    28    1
    21    28    29   ar
    22    29    30   ar
    23    30    31   ar
    24    31    32    1
    25    31    33   ar
    26    33    34    1
    27    33    35   ar
    28    24    25   ar
    29     8     9   ar
    30     9    10   ar
    31    14    15    1
    32    15    16    1
    33    16    11    1
    34    10     5   ar
    35    25    21   ar
    36    35    28   ar
    37     1     4    1
    38    26    27    1
@<TRIPOS>MOLECULE
*****
 35 38 0 0 0
SMALL
GASTEIGER

@<TRIPOS>ATOM
      1 N           2.3545   -0.4960   30.2816 N.am    1  UNL1       -0.2765
      2 C           2.8277    0.3110   31.4541 C.2     1  UNL1        0.3050
      3 O           2.5934    1.7922   31.4887 O.2     1  UNL1       -0.2646
      4 H           2.5083   -1.4682   30.2589 H       1  UNL1        0.1553
      5 C           0.2321    1.5265   26.8677 C.ar    1  UNL1       -0.0224
      6 C          -0.5594    0.8950   27.9743 C.ar    1  UNL1       -0.0030
      7 C           0.1480    0.2208   29.1122 C.ar    1  UNL1        0.0144
      8 C           1.6471    0.1781   29.1436 C.ar    1  UNL1        0.0506
      9 C           2.4386    0.8097   28.0371 C.ar    1  UNL1        0.0144
     10 C           1.7312    1.4838   26.8991 C.ar    1  UNL1       -0.0030
     11 C          -1.8902    3.5490   23.4537 C.3     1  UNL1        0.0056
     12 C          -0.5889    2.8424   23.2147 C.3     1  UNL1        0.0007
     13 C           0.1186    2.1682   24.3527 C.3     1  UNL1        0.0044
     14 C          -0.4753    2.2006   25.7297 C.3     1  UNL1        0.0223
     15 C          -1.7766    2.9073   25.9687 C.3     1  UNL1        0.0044
     16 C          -2.4841    3.5814   24.8307 C.3     1  UNL1        0.0007
     17 C          -2.5977    4.2231   22.3158 C.3     1  UNL1        0.0417
     18 O          -2.2598    3.3495   19.8924 O.co2   1  UNL1       -0.5492
     19 C          -3.0789    3.4148   21.1474 C.2     1  UNL1        0.0503
     20 O          -4.3790    2.6718   21.2340 O.co2   1  UNL1       -0.5492
     21 C           3.5351   -0.3632   32.5921 C.ar    1  UNL1        0.3052
     22 N           3.8892   -1.8186   32.6720 N.ar    1  UNL1       -0.1010
     23 N           4.5857   -2.0552   33.9792 N.ar    1  UNL1       -0.0919
     24 C           4.6620   -0.7461   34.7074 C.ar    1  UNL1        0.3126
     25 O           4.0127    0.2997   33.8501 O.2     1  UNL1       -0.4006
     26 N           5.2792   -0.5219   36.0560 N.pl3   1  UNL1       -0.2664
     27 H           5.9780   -1.1323   36.3852 H       1  UNL1        0.1566
     28 C           4.8317    0.6322   36.9032 C.ar    1  UNL1        0.0541
     29 C           5.7168    1.8326   37.0634 C.ar    1  UNL1        0.0172
     30 C           5.2693    2.9868   37.9105 C.ar    1  UNL1        0.0332
     31 C           3.9367    2.9406   38.5976 C.ar    1  UNL1        0.1675
     32 F           3.4892    4.0946   39.4447 F       1  UNL1       -0.2018
     33 C           3.0516    1.7402   38.4374 C.ar    1  UNL1        0.1686
     34 F           1.7190    1.6938   39.1244 F       1  UNL1       -0.2018
     35 C           3.4991    0.5860   37.5903 C.ar    1  UNL1        0.0467
@<TRIPOS>UNITY_ATOM_ATTR
18 1
charge -1
@<TRIPOS>BOND
     1    18    19   ar
     2    19    20   ar
     3    19    17    1
     4    11    17    1
     5    11    12    1
     6    12    13    1
     7    13    14    1
     8    14     5    1
     9     5     6   ar
    10     6     7   ar
    11     7     8   ar
    12     8     1    1
    13     1     2   am
    14     2     3    2
    15     2    21    1
    16    21    22   ar
    17    22    23   ar
    18    23    24   ar
    19    24    26    1
    20    26    28    1
    21    28    29   ar
    22    29    30   ar
    23    30    31   ar
    24    31    32    1
    25    31    33   ar
    26    33    34    1
    27    33    35   ar
    28    24    25   ar
    29     8     9   ar
    30     9    10   ar
    31    14    15    1
    32    15    16    1
    33    16    11    1
    34    10     5   ar
    35    25    21   ar
    36    35    28   ar
    37     1     4    1
    38    26    27    1
@<TRIPOS>MOLECULE
*****
 35 38 0 0 0
SMALL
GASTEIGER

@<TRIPOS>ATOM
      1 N           1.5312    1.5837   31.5089 N.am    1  UNL1       -0.2765
      2 C           2.7864    0.7624   31.5118 C.2     1  UNL1        0.3050
      3 O           3.3975    0.3220   30.2146 O.2     1  UNL1       -0.2646
      4 H           1.1302    1.8727   32.3603 H       1  UNL1        0.1553
      5 C          -0.4011    2.7265   27.6089 C.ar    1  UNL1       -0.0224
      6 C           0.4557    3.7171   28.3401 C.ar    1  UNL1       -0.0030
      7 C           1.0998    3.3361   29.6401 C.ar    1  UNL1        0.0144
      8 C           0.8871    1.9646   30.2089 C.ar    1  UNL1        0.0506
      9 C           0.0303    0.9740   29.4778 C.ar    1  UNL1        0.0144
     10 C          -0.6138    1.3550   28.1778 C.ar    1  UNL1       -0.0030
     11 C          -2.3335    3.8693   23.7090 C.3     1  UNL1        0.0056
     12 C          -0.9051    3.4122   23.7326 C.3     1  UNL1        0.0007
     13 C          -0.2609    3.0313   25.0326 C.3     1  UNL1        0.0044
     14 C          -1.0452    3.1074   26.3090 C.3     1  UNL1        0.0223
     15 C          -2.4737    3.5646   26.2853 C.3     1  UNL1        0.0044
     16 C          -3.1178    3.9455   24.9853 C.3     1  UNL1        0.0007
     17 C          -2.9776    4.2503   22.4090 C.3     1  UNL1        0.0417
     18 O          -4.7968    2.5459   21.6770 O.co2   1  UNL1       -0.5492
     19 C          -3.4556    3.1844   21.4681 C.2     1  UNL1        0.0503
     20 O          -2.5924    2.7569   20.3182 O.co2   1  UNL1       -0.5492
     21 C           3.4305    0.3814   32.8118 C.ar    1  UNL1        0.3052
     22 N           4.1477   -0.9048   33.0969 N.ar    1  UNL1       -0.1010
     23 N           4.6310   -0.8613   34.5162 N.ar    1  UNL1       -0.0919
     24 C           4.2124    0.4518   35.1084 C.ar    1  UNL1        0.3126
     25 O           3.4705    1.2199   34.0550 O.2     1  UNL1       -0.4006
     26 N           4.4875    0.9154   36.5081 N.pl3   1  UNL1       -0.2664
     27 H           5.4075    0.9041   36.8586 H       1  UNL1        0.1566
     28 C           3.3610    1.3963   37.3740 C.ar    1  UNL1        0.0541
     29 C           2.8732    2.8097   37.2536 C.ar    1  UNL1        0.0172
     30 C           1.7467    3.2906   38.1194 C.ar    1  UNL1        0.0332
     31 C           1.1079    2.3582   39.1056 C.ar    1  UNL1        0.1675
     32 F          -0.0185    2.8391   39.9714 F       1  UNL1       -0.2018
     33 C           1.5957    0.9448   39.2260 C.ar    1  UNL1        0.1686
     34 F           0.9571    0.0123   40.2122 F       1  UNL1       -0.2018
     35 C           2.7223    0.4639   38.3602 C.ar    1  UNL1        0.0467
@<TRIPOS>UNITY_ATOM_ATTR
18 1
charge -1
@<TRIPOS>BOND
     1    18    19   ar
     2    19    20   ar
     3    19    17    1
     4    11    17    1
     5    11    12    1
     6    12    13    1
     7    13    14    1
     8    14     5    1
     9     5     6   ar
    10     6     7   ar
    11     7     8   ar
    12     8     1    1
    13     1     2   am
    14     2     3    2
    15     2    21    1
    16    21    22   ar
    17    22    23   ar
    18    23    24   ar
    19    24    26    1
    20    26    28    1
    21    28    29   ar
    22    29    30   ar
    23    30    31   ar
    24    31    32    1
    25    31    33   ar
    26    33    34    1
    27    33    35   ar
    28    24    25   ar
    29     8     9   ar
    30     9    10   ar
    31    14    15    1
    32    15    16    1
    33    16    11    1
    34    10     5   ar
    35    25    21   ar
    36    35    28   ar
    37     1     4    1
    38    26    27    1
@<TRIPOS>MOLECULE
*****
 35 38 0 0 0
SMALL
GASTEIGER

@<TRIPOS>ATOM
      1 N           2.5165    1.9679   28.1183 N.am    1  UNL1       -0.2765
      2 C           1.8907    1.2693   29.2888 C.2     1  UNL1        0.3050
      3 O           1.4179   -0.1477   29.1514 O.2     1  UNL1       -0.2646
      4 H           2.8267    2.8979   28.2084 H       1  UNL1        0.1553
      5 C           2.9757   -0.1867   24.1944 C.ar    1  UNL1       -0.0224
      6 C           1.7388    0.6162   24.4689 C.ar    1  UNL1       -0.0030
      7 C           1.5857    1.3344   25.7768 C.ar    1  UNL1        0.0144
      8 C           2.6695    1.2497   26.8103 C.ar    1  UNL1        0.0506
      9 C           3.9064    0.4468   26.5358 C.ar    1  UNL1        0.0144
     10 C           4.0595   -0.2714   25.2279 C.ar    1  UNL1       -0.0030
     11 C           3.4349   -2.3413   20.2706 C.3     1  UNL1        0.0056
     12 C           4.1954   -2.8084   21.4761 C.3     1  UNL1        0.0007
     13 C           4.0424   -2.0901   22.7841 C.3     1  UNL1        0.0044
     14 C           3.1288   -0.9049   22.8865 C.3     1  UNL1        0.0223
     15 C           2.3683   -0.4379   21.6809 C.3     1  UNL1        0.0044
     16 C           2.5213   -1.1561   20.3729 C.3     1  UNL1        0.0007
     17 C           3.5880   -3.0595   18.9626 C.3     1  UNL1        0.0417
     18 O           5.9285   -2.9454   17.8404 O.co2   1  UNL1       -0.5492
     19 C           4.8936   -3.7094   18.6122 C.2     1  UNL1        0.0503
     20 O           5.1646   -5.1234   19.0334 O.co2   1  UNL1       -0.5492
     21 C           1.7376    1.9875   30.5968 C.ar    1  UNL1        0.3052
     22 N           1.3900    1.3577   31.9130 N.ar    1  UNL1       -0.1010
     23 N           1.3428    2.4426   32.9479 N.ar    1  UNL1       -0.0919
     24 C           1.6612    3.7428   32.2712 C.ar    1  UNL1        0.3126
     25 O           1.9052    3.4616   30.8181 O.2     1  UNL1       -0.4006
     26 N           1.7246    5.0882   32.9315 N.pl3   1  UNL1       -0.2664
     27 H           2.5834    5.5651   32.9957 H       1  UNL1        0.1566
     28 C           0.4793    5.7069   33.4942 C.ar    1  UNL1        0.0541
     29 C          -0.6863    5.9965   32.5955 C.ar    1  UNL1        0.0172
     30 C          -1.9315    6.6152   33.1582 C.ar    1  UNL1        0.0332
     31 C          -2.0112    6.9443   34.6195 C.ar    1  UNL1        0.1675
     32 F          -3.2564    7.5629   35.1821 F       1  UNL1       -0.2018
     33 C          -0.8457    6.6547   35.5181 C.ar    1  UNL1        0.1686
     34 F          -0.9253    6.9837   36.9794 F       1  UNL1       -0.2018
     35 C           0.3996    6.0359   34.9554 C.ar    1  UNL1        0.0467
@<TRIPOS>UNITY_ATOM_ATTR
18 1
charge -1
@<TRIPOS>BOND
     1    18    19   ar
     2    19    20   ar
     3    19    17    1
     4    11    17    1
     5    11    12    1
     6    12    13    1
     7    13    14    1
     8    14     5    1
     9     5     6   ar
    10     6     7   ar
    11     7     8   ar
    12     8     1    1
    13     1     2   am
    14     2     3    2
    15     2    21    1
    16    21    22   ar
    17    22    23   ar
    18    23    24   ar
    19    24    26    1
    20    26    28    1
    21    28    29   ar
    22    29    30   ar
    23    30    31   ar
    24    31    32    1
    25    31    33   ar
    26    33    34    1
    27    33    35   ar
    28    24    25   ar
    29     8     9   ar
    30     9    10   ar
    31    14    15    1
    32    15    16    1
    33    16    11    1
    34    10     5   ar
    35    25    21   ar
    36    35    28   ar
    37     1     4    1
    38    26    27    1
