@<TRIPOS>MOLECULE
*****
 29 33 0 0 0
SMALL
GASTEIGER

@<TRIPOS>ATOM
      1 C           2.6918   -0.4625   20.0843 C.ar    1  UNL1        0.0010
      2 C           1.2503   -0.8766   20.1037 C.ar    1  UNL1        0.0002
      3 C           0.1808    0.1422   20.3650 C.ar    1  UNL1        0.0051
      4 C           0.5529    1.5751   20.6068 C.ar    1  UNL1        0.0623
      5 C           1.9945    1.9891   20.5874 C.ar    1  UNL1        0.0775
      6 C           3.0639    0.9704   20.3261 C.ar    1  UNL1        0.0167
      7 N           2.3665    3.4220   20.8292 N.am    1  UNL1       -0.1720
      8 C           1.2971    4.4408   21.0904 C.2     1  UNL1        0.3160
      9 O           1.6692    5.8736   21.3322 O.2     1  UNL1       -0.2638
     10 C          -0.1446    4.0267   21.1099 C.2     1  UNL1        0.2907
     11 N          -1.4084    4.8015   21.3388 N.2     1  UNL1       -0.0255
     12 C          -2.5615    3.8475   21.2384 C.2     1  UNL1        0.3787
     13 N          -2.0105    2.4831   20.9475 N.2     1  UNL1       -0.0302
     14 C          -0.5166    2.5938   20.8681 C.2     1  UNL1        0.2419
     15 C          -4.0113    4.1966   21.4005 C.ar    1  UNL1        0.1263
     16 C          -4.7333    3.8339   22.6642 C.ar    1  UNL1        0.1484
     17 F          -4.0056    3.1220   23.7659 F       1  UNL1       -0.2039
     18 C          -6.1831    4.1830   22.8263 C.ar    1  UNL1        0.0300
     19 C          -6.9108    4.8949   21.7247 C.ar    1  UNL1        0.0032
     20 C          -6.1888    5.2576   20.4610 C.ar    1  UNL1        0.0118
     21 C          -4.7390    4.9085   20.2989 C.ar    1  UNL1        0.0673
     22 CL         -4.0170    5.2713   19.0351 Cl      1  UNL1       -0.0819
     23 C           3.7763   -0.8211   17.3102 C.3     1  UNL1        0.0310
     24 C           4.3036   -1.6606   18.4360 C.ar    1  UNL1       -0.0218
     25 C           5.3731   -2.6793   18.1746 C.ar    1  UNL1       -0.0043
     26 C           5.9005   -3.5188   19.3004 C.ar    1  UNL1       -0.0003
     27 C           5.3582   -3.3395   20.6874 C.ar    1  UNL1       -0.0000
     28 C           4.2887   -2.3207   20.9487 C.ar    1  UNL1       -0.0003
     29 C           3.7614   -1.4813   19.8230 C.ar    1  UNL1       -0.0039
@<TRIPOS>BOND
     1    23    24    1
     2    24    25   ar
     3    25    26   ar
     4    26    27   ar
     5    27    28   ar
     6    28    29   ar
     7    29     1    1
     8     1     2   ar
     9     2     3   ar
    10     3     4   ar
    11     4     5   ar
    12     5     6   ar
    13     5     7    2
    14     7     8    1
    15     8     9    2
    16     8    10    1
    17    10    11    2
    18    11    12    1
    19    12    15    1
    20    15    16   ar
    21    16    17    1
    22    16    18   ar
    23    18    19   ar
    24    19    20   ar
    25    20    21   ar
    26    21    22    1
    27    12    13    2
    28    13    14    1
    29    29    24   ar
    30     6     1   ar
    31    14    10    1
    32    14     4    2
    33    21    15   ar
@<TRIPOS>MOLECULE
*****
 29 33 0 0 0
SMALL
GASTEIGER

@<TRIPOS>ATOM
      1 C           2.6755   -0.4825   20.0772 C.ar    1  UNL1        0.0010
      2 C           1.2361   -0.9034   20.1067 C.ar    1  UNL1        0.0002
      3 C           0.1611    0.1165   20.3396 C.ar    1  UNL1        0.0051
      4 C           0.5255    1.5572   20.5430 C.ar    1  UNL1        0.0623
      5 C           1.9649    1.9781   20.5135 C.ar    1  UNL1        0.0775
      6 C           3.0399    0.9583   20.2806 C.ar    1  UNL1        0.0167
      7 N           2.3293    3.4189   20.7170 N.am    1  UNL1       -0.1720
      8 C           1.2544    4.4388   20.9499 C.2     1  UNL1        0.3160
      9 O           1.6188    5.8795   21.1533 O.2     1  UNL1       -0.2638
     10 C          -0.1851    4.0179   20.9794 C.2     1  UNL1        0.2907
     11 N          -1.4532    4.7920   21.1863 N.2     1  UNL1       -0.0255
     12 C          -2.6012    3.8296   21.1108 C.2     1  UNL1        0.3787
     13 N          -2.0428    2.4608   20.8572 N.2     1  UNL1       -0.0302
     14 C          -0.5495    2.5771   20.7759 C.2     1  UNL1        0.2419
     15 C          -4.0529    4.1754   21.2623 C.ar    1  UNL1        0.1263
     16 C          -4.7899    4.8300   20.1317 C.ar    1  UNL1        0.1484
     17 F          -4.0752    5.1389   18.8495 F       1  UNL1       -0.2039
     18 C          -6.2417    5.1758   20.2832 C.ar    1  UNL1        0.0300
     19 C          -6.9564    4.8670   21.5653 C.ar    1  UNL1        0.0032
     20 C          -6.2194    4.2124   22.6958 C.ar    1  UNL1        0.0118
     21 C          -4.7677    3.8666   22.5443 C.ar    1  UNL1        0.0673
     22 CL         -4.0307    3.2120   23.6750 Cl      1  UNL1       -0.0819
     23 C           3.7791   -0.8951   17.3183 C.3     1  UNL1        0.0310
     24 C           4.3024   -1.7087   18.4648 C.ar    1  UNL1       -0.0218
     25 C           5.3774   -2.7285   18.2319 C.ar    1  UNL1       -0.0043
     26 C           5.9006   -3.5420   19.3784 C.ar    1  UNL1       -0.0003
     27 C           5.3488   -3.3357   20.7578 C.ar    1  UNL1       -0.0000
     28 C           4.2737   -2.3158   20.9908 C.ar    1  UNL1       -0.0003
     29 C           3.7505   -1.5023   19.8443 C.ar    1  UNL1       -0.0039
@<TRIPOS>BOND
     1    23    24    1
     2    24    25   ar
     3    25    26   ar
     4    26    27   ar
     5    27    28   ar
     6    28    29   ar
     7    29     1    1
     8     1     2   ar
     9     2     3   ar
    10     3     4   ar
    11     4     5   ar
    12     5     6   ar
    13     5     7    2
    14     7     8    1
    15     8     9    2
    16     8    10    1
    17    10    11    2
    18    11    12    1
    19    12    15    1
    20    15    16   ar
    21    16    17    1
    22    16    18   ar
    23    18    19   ar
    24    19    20   ar
    25    20    21   ar
    26    21    22    1
    27    12    13    2
    28    13    14    1
    29    29    24   ar
    30     6     1   ar
    31    14    10    1
    32    14     4    2
    33    21    15   ar
@<TRIPOS>MOLECULE
*****
 29 33 0 0 0
SMALL
GASTEIGER

@<TRIPOS>ATOM
      1 C           2.3235   -0.3060   19.6220 C.ar    1  UNL1        0.0010
      2 C           1.7957   -0.2980   21.0260 C.ar    1  UNL1        0.0002
      3 C           0.7194    0.6709   21.4171 C.ar    1  UNL1        0.0051
      4 C           0.1710    1.6317   20.4041 C.ar    1  UNL1        0.0623
      5 C           0.6989    1.6237   19.0001 C.ar    1  UNL1        0.0775
      6 C           1.7752    0.6548   18.6091 C.ar    1  UNL1        0.0167
      7 N           0.1505    2.5845   17.9871 N.am    1  UNL1       -0.1720
      8 C          -0.9257    3.5534   18.3782 C.2     1  UNL1        0.3160
      9 O          -1.4741    4.5142   17.3652 O.2     1  UNL1       -0.2638
     10 C          -1.4536    3.5615   19.7822 C.2     1  UNL1        0.2907
     11 N          -2.5039    4.3948   20.4549 N.2     1  UNL1       -0.0255
     12 C          -2.6046    3.9490   21.8835 C.2     1  UNL1        0.3787
     13 N          -1.6167    2.8402   22.0939 N.2     1  UNL1       -0.0302
     14 C          -0.9053    2.6006   20.7952 C.2     1  UNL1        0.2419
     15 C          -3.5308    4.5130   22.9199 C.ar    1  UNL1        0.1263
     16 C          -4.7715    3.7631   23.3048 C.ar    1  UNL1        0.1484
     17 F          -5.0861    2.4490   22.6533 F       1  UNL1       -0.2039
     18 C          -5.6977    4.3271   24.3412 C.ar    1  UNL1        0.0300
     19 C          -5.3831    5.6411   24.9926 C.ar    1  UNL1        0.0032
     20 C          -4.1424    6.3910   24.6077 C.ar    1  UNL1        0.0118
     21 C          -3.2163    5.8270   23.5714 C.ar    1  UNL1        0.0673
     22 CL         -1.9755    6.5770   23.1865 Cl      1  UNL1       -0.0819
     23 C           4.9580    0.7082   18.6067 C.3     1  UNL1        0.0310
     24 C           4.7171   -0.7678   18.7233 C.ar    1  UNL1       -0.0218
     25 C           5.7934   -1.7366   18.3322 C.ar    1  UNL1       -0.0043
     26 C           5.5524   -3.2126   18.4488 C.ar    1  UNL1       -0.0003
     27 C           4.2352   -3.7197   18.9564 C.ar    1  UNL1       -0.0000
     28 C           3.1589   -2.7508   19.3475 C.ar    1  UNL1       -0.0003
     29 C           3.3998   -1.2749   19.2309 C.ar    1  UNL1       -0.0039
@<TRIPOS>BOND
     1    23    24    1
     2    24    25   ar
     3    25    26   ar
     4    26    27   ar
     5    27    28   ar
     6    28    29   ar
     7    29     1    1
     8     1     2   ar
     9     2     3   ar
    10     3     4   ar
    11     4     5   ar
    12     5     6   ar
    13     5     7    2
    14     7     8    1
    15     8     9    2
    16     8    10    1
    17    10    11    2
    18    11    12    1
    19    12    15    1
    20    15    16   ar
    21    16    17    1
    22    16    18   ar
    23    18    19   ar
    24    19    20   ar
    25    20    21   ar
    26    21    22    1
    27    12    13    2
    28    13    14    1
    29    29    24   ar
    30     6     1   ar
    31    14    10    1
    32    14     4    2
    33    21    15   ar
@<TRIPOS>MOLECULE
*****
 29 33 0 0 0
SMALL
GASTEIGER

@<TRIPOS>ATOM
      1 C           6.1143   -3.5078   24.4027 C.ar    1  UNL1        0.0010
      2 C           5.6647   -2.2719   25.1241 C.ar    1  UNL1        0.0002
      3 C           5.7981   -2.1838   26.6155 C.ar    1  UNL1        0.0051
      4 C           6.3810   -3.3315   27.3856 C.ar    1  UNL1        0.0623
      5 C           6.8305   -4.5674   26.6642 C.ar    1  UNL1        0.0775
      6 C           6.6971   -4.6556   25.1728 C.ar    1  UNL1        0.0167
      7 N           7.4134   -5.7151   27.4343 N.am    1  UNL1       -0.1720
      8 C           7.5467   -5.6269   28.9257 C.2     1  UNL1        0.3160
      9 O           8.1296   -6.7747   29.6957 O.2     1  UNL1       -0.2638
     10 C           7.0972   -4.3910   29.6471 C.2     1  UNL1        0.2907
     11 N           7.1037   -4.0186   31.1002 N.2     1  UNL1       -0.0255
     12 C           6.5249   -2.6407   31.2281 C.2     1  UNL1        0.3787
     13 N           6.1606   -2.1615   29.8542 N.2     1  UNL1       -0.0302
     14 C           6.5143   -3.2433   28.8771 C.2     1  UNL1        0.2419
     15 C           6.3423   -1.8763   32.5057 C.ar    1  UNL1        0.1263
     16 C           5.0147   -1.8882   33.2037 C.ar    1  UNL1        0.1484
     17 F           3.8696   -2.6647   32.6242 F       1  UNL1       -0.2039
     18 C           4.8322   -1.1238   34.4813 C.ar    1  UNL1        0.0300
     19 C           5.9772   -0.3473   35.0609 C.ar    1  UNL1        0.0032
     20 C           7.3048   -0.3353   34.3628 C.ar    1  UNL1        0.0118
     21 C           7.4874   -1.0998   33.0852 C.ar    1  UNL1        0.0673
     22 CL          8.8151   -1.0878   32.3872 Cl      1  UNL1       -0.0819
     23 C           8.5426   -3.2415   22.6614 C.3     1  UNL1        0.0310
     24 C           7.1951   -3.4629   22.0405 C.ar    1  UNL1       -0.0218
     25 C           7.0618   -3.5511   20.5491 C.ar    1  UNL1       -0.0043
     26 C           5.7143   -3.7725   19.9283 C.ar    1  UNL1       -0.0003
     27 C           4.5001   -3.9057   20.7990 C.ar    1  UNL1       -0.0000
     28 C           4.6335   -3.8174   22.2905 C.ar    1  UNL1       -0.0003
     29 C           5.9809   -3.5961   22.9112 C.ar    1  UNL1       -0.0039
@<TRIPOS>BOND
     1    23    24    1
     2    24    25   ar
     3    25    26   ar
     4    26    27   ar
     5    27    28   ar
     6    28    29   ar
     7    29     1    1
     8     1     2   ar
     9     2     3   ar
    10     3     4   ar
    11     4     5   ar
    12     5     6   ar
    13     5     7    2
    14     7     8    1
    15     8     9    2
    16     8    10    1
    17    10    11    2
    18    11    12    1
    19    12    15    1
    20    15    16   ar
    21    16    17    1
    22    16    18   ar
    23    18    19   ar
    24    19    20   ar
    25    20    21   ar
    26    21    22    1
    27    12    13    2
    28    13    14    1
    29    29    24   ar
    30     6     1   ar
    31    14    10    1
    32    14     4    2
    33    21    15   ar
@<TRIPOS>MOLECULE
*****
 29 33 0 0 0
SMALL
GASTEIGER

@<TRIPOS>ATOM
      1 C           3.6799   -1.2129   21.9313 C.ar    1  UNL1        0.0010
      2 C           3.6115   -0.5777   23.2884 C.ar    1  UNL1        0.0002
      3 C           4.3890   -1.1624   24.4302 C.ar    1  UNL1        0.0051
      4 C           5.2349   -2.3822   24.2148 C.ar    1  UNL1        0.0623
      5 C           5.3033   -3.0174   22.8577 C.ar    1  UNL1        0.0775
      6 C           4.5258   -2.4327   21.7159 C.ar    1  UNL1        0.0167
      7 N           6.1493   -4.2372   22.6423 N.am    1  UNL1       -0.1720
      8 C           6.9268   -4.8219   23.7840 C.2     1  UNL1        0.3160
      9 O           7.7728   -6.0417   23.5686 O.2     1  UNL1       -0.2638
     10 C           6.8584   -4.1867   25.1412 C.2     1  UNL1        0.2907
     11 N           7.5092   -4.5358   26.4468 N.2     1  UNL1       -0.0255
     12 C           7.0655   -3.5319   27.4690 C.2     1  UNL1        0.3787
     13 N           6.1405   -2.5622   26.7953 N.2     1  UNL1       -0.0302
     14 C           6.0125   -2.9668   25.3566 C.2     1  UNL1        0.2419
     15 C           7.4749   -3.5027   28.9117 C.ar    1  UNL1        0.1263
     16 C           7.0021   -4.5755   29.8474 C.ar    1  UNL1        0.1484
     17 F           6.1198   -5.6775   29.3403 F       1  UNL1       -0.2039
     18 C           7.4115   -4.5463   31.2901 C.ar    1  UNL1        0.0300
     19 C           8.2938   -3.4443   31.7972 C.ar    1  UNL1        0.0032
     20 C           8.7666   -2.3715   30.8616 C.ar    1  UNL1        0.0118
     21 C           8.3572   -2.4007   29.4188 C.ar    1  UNL1        0.0673
     22 CL          8.8301   -1.3278   28.4832 Cl      1  UNL1       -0.0819
     23 C           5.1147   -0.2305   19.4867 C.3     1  UNL1        0.0310
     24 C           3.6197   -0.1371   19.5672 C.ar    1  UNL1       -0.0218
     25 C           2.8422    0.4476   18.4254 C.ar    1  UNL1       -0.0043
     26 C           1.3473    0.5410   18.5059 C.ar    1  UNL1       -0.0003
     27 C           0.6298    0.0498   19.7282 C.ar    1  UNL1       -0.0000
     28 C           1.4074   -0.5349   20.8700 C.ar    1  UNL1       -0.0003
     29 C           2.9023   -0.6283   20.7895 C.ar    1  UNL1       -0.0039
@<TRIPOS>BOND
     1    23    24    1
     2    24    25   ar
     3    25    26   ar
     4    26    27   ar
     5    27    28   ar
     6    28    29   ar
     7    29     1    1
     8     1     2   ar
     9     2     3   ar
    10     3     4   ar
    11     4     5   ar
    12     5     6   ar
    13     5     7    2
    14     7     8    1
    15     8     9    2
    16     8    10    1
    17    10    11    2
    18    11    12    1
    19    12    15    1
    20    15    16   ar
    21    16    17    1
    22    16    18   ar
    23    18    19   ar
    24    19    20   ar
    25    20    21   ar
    26    21    22    1
    27    12    13    2
    28    13    14    1
    29    29    24   ar
    30     6     1   ar
    31    14    10    1
    32    14     4    2
    33    21    15   ar
@<TRIPOS>MOLECULE
*****
 29 33 0 0 0
SMALL
GASTEIGER

@<TRIPOS>ATOM
      1 C           3.8310   -1.4798   21.1213 C.ar    1  UNL1        0.0010
      2 C           3.6286   -1.5498   22.6059 C.ar    1  UNL1        0.0002
      3 C           4.5496   -2.3800   23.4500 C.ar    1  UNL1        0.0051
      4 C           5.6730   -3.1401   22.8096 C.ar    1  UNL1        0.0623
      5 C           5.8755   -3.0700   21.3250 C.ar    1  UNL1        0.0775
      6 C           4.9545   -2.2399   20.4808 C.ar    1  UNL1        0.0167
      7 N           6.9989   -3.8301   20.6846 N.am    1  UNL1       -0.1720
      8 C           7.9199   -4.6603   21.5287 C.2     1  UNL1        0.3160
      9 O           9.0433   -5.4204   20.8883 O.2     1  UNL1       -0.2638
     10 C           7.7174   -4.7303   23.0134 C.2     1  UNL1        0.2907
     11 N           8.4591   -5.4595   24.0943 N.2     1  UNL1       -0.0255
     12 C           7.7941   -5.1500   25.4026 C.2     1  UNL1        0.3787
     13 N           6.6414   -4.2296   25.1305 N.2     1  UNL1       -0.0302
     14 C           6.5940   -3.9702   23.6538 C.2     1  UNL1        0.2419
     15 C           8.2089   -5.6697   26.7472 C.ar    1  UNL1        0.1263
     16 C           8.8364   -4.7450   27.7477 C.ar    1  UNL1        0.1484
     17 F           9.0490   -3.3005   27.4037 F       1  UNL1       -0.2039
     18 C           9.2512   -5.2647   29.0923 C.ar    1  UNL1        0.0300
     19 C           9.0386   -6.7091   29.4362 C.ar    1  UNL1        0.0032
     20 C           8.4112   -7.6339   28.4357 C.ar    1  UNL1        0.0118
     21 C           7.9963   -7.1141   27.0911 C.ar    1  UNL1        0.0673
     22 CL          7.3688   -8.0389   26.0906 Cl      1  UNL1       -0.0819
     23 C           4.8956   -0.0304   18.7200 C.3     1  UNL1        0.0310
     24 C           3.4423    0.0750   19.0764 C.ar    1  UNL1       -0.0218
     25 C           2.5214    0.9052   18.2322 C.ar    1  UNL1       -0.0043
     26 C           1.0681    1.0106   18.5885 C.ar    1  UNL1       -0.0003
     27 C           0.5359    0.2859   19.7892 C.ar    1  UNL1       -0.0000
     28 C           1.4569   -0.5442   20.6334 C.ar    1  UNL1       -0.0003
     29 C           2.9100   -0.6497   20.2770 C.ar    1  UNL1       -0.0039
@<TRIPOS>BOND
     1    23    24    1
     2    24    25   ar
     3    25    26   ar
     4    26    27   ar
     5    27    28   ar
     6    28    29   ar
     7    29     1    1
     8     1     2   ar
     9     2     3   ar
    10     3     4   ar
    11     4     5   ar
    12     5     6   ar
    13     5     7    2
    14     7     8    1
    15     8     9    2
    16     8    10    1
    17    10    11    2
    18    11    12    1
    19    12    15    1
    20    15    16   ar
    21    16    17    1
    22    16    18   ar
    23    18    19   ar
    24    19    20   ar
    25    20    21   ar
    26    21    22    1
    27    12    13    2
    28    13    14    1
    29    29    24   ar
    30     6     1   ar
    31    14    10    1
    32    14     4    2
    33    21    15   ar
@<TRIPOS>MOLECULE
*****
 29 33 0 0 0
SMALL
GASTEIGER

@<TRIPOS>ATOM
      1 C           2.4556   -0.3115   20.0907 C.ar    1  UNL1        0.0010
      2 C           1.1811   -0.0018   19.3629 C.ar    1  UNL1        0.0002
      3 C           0.1691    0.9170   19.9806 C.ar    1  UNL1        0.0051
      4 C           0.4315    1.5260   21.3260 C.ar    1  UNL1        0.0623
      5 C           1.7060    1.2163   22.0538 C.ar    1  UNL1        0.0775
      6 C           2.7181    0.2975   21.4361 C.ar    1  UNL1        0.0167
      7 N           1.9685    1.8253   23.3992 N.am    1  UNL1       -0.1720
      8 C           0.9564    2.7441   24.0169 C.2     1  UNL1        0.3160
      9 O           1.2189    3.3531   25.3623 O.2     1  UNL1       -0.2638
     10 C          -0.3182    3.0539   23.2892 C.2     1  UNL1        0.2907
     11 N          -1.4926    3.9166   23.6445 N.2     1  UNL1       -0.0255
     12 C          -2.4809    3.8408   22.5187 C.2     1  UNL1        0.3787
     13 N          -1.9173    2.9312   21.4676 N.2     1  UNL1       -0.0302
     14 C          -0.5806    2.4448   21.9437 C.2     1  UNL1        0.2419
     15 C          -3.8011    4.5501   22.4551 C.ar    1  UNL1        0.1263
     16 C          -5.0688    3.8025   22.7448 C.ar    1  UNL1        0.1484
     17 F          -5.0164    2.3456   23.0980 F       1  UNL1       -0.2039
     18 C          -6.3890    4.5118   22.6812 C.ar    1  UNL1        0.0300
     19 C          -6.4414    5.9687   22.3280 C.ar    1  UNL1        0.0032
     20 C          -5.1737    6.7162   22.0384 C.ar    1  UNL1        0.0118
     21 C          -3.8535    6.0069   22.1019 C.ar    1  UNL1        0.0673
     22 CL         -2.5857    6.7546   21.8123 Cl      1  UNL1       -0.0819
     23 C           4.6397    0.8062   18.3643 C.3     1  UNL1        0.0310
     24 C           4.5598   -0.6714   18.6098 C.ar    1  UNL1       -0.0218
     25 C           5.5719   -1.5902   17.9921 C.ar    1  UNL1       -0.0043
     26 C           5.4920   -3.0678   18.2376 C.ar    1  UNL1       -0.0003
     27 C           4.3999   -3.6267   19.1008 C.ar    1  UNL1       -0.0000
     28 C           3.3878   -2.7079   19.7185 C.ar    1  UNL1       -0.0003
     29 C           3.4678   -1.2303   19.4730 C.ar    1  UNL1       -0.0039
@<TRIPOS>BOND
     1    23    24    1
     2    24    25   ar
     3    25    26   ar
     4    26    27   ar
     5    27    28   ar
     6    28    29   ar
     7    29     1    1
     8     1     2   ar
     9     2     3   ar
    10     3     4   ar
    11     4     5   ar
    12     5     6   ar
    13     5     7    2
    14     7     8    1
    15     8     9    2
    16     8    10    1
    17    10    11    2
    18    11    12    1
    19    12    15    1
    20    15    16   ar
    21    16    17    1
    22    16    18   ar
    23    18    19   ar
    24    19    20   ar
    25    20    21   ar
    26    21    22    1
    27    12    13    2
    28    13    14    1
    29    29    24   ar
    30     6     1   ar
    31    14    10    1
    32    14     4    2
    33    21    15   ar
@<TRIPOS>MOLECULE
*****
 29 33 0 0 0
SMALL
GASTEIGER

@<TRIPOS>ATOM
      1 C           3.4222   -1.2000   21.5939 C.ar    1  UNL1        0.0010
      2 C           3.8894   -1.4058   23.0043 C.ar    1  UNL1        0.0002
      3 C           3.2559   -0.6348   24.1242 C.ar    1  UNL1        0.0051
      4 C           2.1552    0.3419   23.8337 C.ar    1  UNL1        0.0623
      5 C           1.6879    0.5477   22.4233 C.ar    1  UNL1        0.0775
      6 C           2.3215   -0.2232   21.3034 C.ar    1  UNL1        0.0167
      7 N           0.5872    1.5245   22.1328 N.am    1  UNL1       -0.1720
      8 C          -0.0463    2.2954   23.2527 C.2     1  UNL1        0.3160
      9 O          -1.1470    3.2722   22.9622 O.2     1  UNL1       -0.2638
     10 C           0.4209    2.0897   24.6632 C.2     1  UNL1        0.2907
     11 N          -0.0105    2.7018   25.9629 N.2     1  UNL1       -0.0255
     12 C           0.8235    2.1034   27.0566 C.2     1  UNL1        0.3787
     13 N           1.7704    1.1214   26.4329 N.2     1  UNL1       -0.0302
     14 C           1.5216    1.1129   24.9537 C.2     1  UNL1        0.2419
     15 C           0.7275    2.4297   28.5175 C.ar    1  UNL1        0.1263
     16 C           1.0976    3.7987   29.0061 C.ar    1  UNL1        0.1484
     17 F           1.5637    4.8415   28.0337 F       1  UNL1       -0.2039
     18 C           1.0016    4.1250   30.4670 C.ar    1  UNL1        0.0300
     19 C           0.5355    3.0823   31.4393 C.ar    1  UNL1        0.0032
     20 C           0.1654    1.7133   30.9507 C.ar    1  UNL1        0.0118
     21 C           0.2614    1.3870   29.4898 C.ar    1  UNL1        0.0673
     22 CL         -0.1087    0.0179   29.0012 Cl      1  UNL1       -0.0819
     23 C           5.7305   -0.0239   20.0811 C.3     1  UNL1        0.0310
     24 C           5.2098   -1.3829   19.7175 C.ar    1  UNL1       -0.0218
     25 C           5.8434   -2.1538   18.5976 C.ar    1  UNL1       -0.0043
     26 C           5.3227   -3.5128   18.2339 C.ar    1  UNL1       -0.0003
     27 C           4.1685   -4.1008   18.9903 C.ar    1  UNL1       -0.0000
     28 C           3.5350   -3.3299   20.1103 C.ar    1  UNL1       -0.0003
     29 C           4.0557   -1.9710   20.4739 C.ar    1  UNL1       -0.0039
@<TRIPOS>BOND
     1    23    24    1
     2    24    25   ar
     3    25    26   ar
     4    26    27   ar
     5    27    28   ar
     6    28    29   ar
     7    29     1    1
     8     1     2   ar
     9     2     3   ar
    10     3     4   ar
    11     4     5   ar
    12     5     6   ar
    13     5     7    2
    14     7     8    1
    15     8     9    2
    16     8    10    1
    17    10    11    2
    18    11    12    1
    19    12    15    1
    20    15    16   ar
    21    16    17    1
    22    16    18   ar
    23    18    19   ar
    24    19    20   ar
    25    20    21   ar
    26    21    22    1
    27    12    13    2
    28    13    14    1
    29    29    24   ar
    30     6     1   ar
    31    14    10    1
    32    14     4    2
    33    21    15   ar
@<TRIPOS>MOLECULE
*****
 29 33 0 0 0
SMALL
GASTEIGER

@<TRIPOS>ATOM
      1 C           6.1795   -3.3425   24.7221 C.ar    1  UNL1        0.0010
      2 C           5.7663   -2.0909   25.4380 C.ar    1  UNL1        0.0002
      3 C           5.9144   -1.9953   26.9276 C.ar    1  UNL1        0.0051
      4 C           6.4758   -3.1513   27.7012 C.ar    1  UNL1        0.0623
      5 C           6.8890   -4.4029   26.9853 C.ar    1  UNL1        0.0775
      6 C           6.7408   -4.4985   25.4957 C.ar    1  UNL1        0.0167
      7 N           7.4503   -5.5590   27.7589 N.am    1  UNL1       -0.1720
      8 C           7.5984   -5.4634   29.2484 C.2     1  UNL1        0.3160
      9 O           8.1598   -6.6194   30.0221 O.2     1  UNL1       -0.2638
     10 C           7.1852   -4.2117   29.9645 C.2     1  UNL1        0.2907
     11 N           7.2131   -3.8291   31.4146 N.2     1  UNL1       -0.0255
     12 C           6.6691   -2.4367   31.5372 C.2     1  UNL1        0.3787
     13 N           6.3049   -1.9586   30.1629 N.2     1  UNL1       -0.0302
     14 C           6.6239   -3.0556   29.1909 C.2     1  UNL1        0.2419
     15 C           6.5160   -1.6588   32.8106 C.ar    1  UNL1        0.1263
     16 C           7.6639   -0.8499   33.3378 C.ar    1  UNL1        0.1484
     17 F           8.9649   -0.8189   32.5917 F       1  UNL1       -0.2039
     18 C           7.5109   -0.0721   34.6112 C.ar    1  UNL1        0.0300
     19 C           6.2100   -0.1031   35.3573 C.ar    1  UNL1        0.0032
     20 C           5.0621   -0.9120   34.8300 C.ar    1  UNL1        0.0118
     21 C           5.2152   -1.6899   33.5566 C.ar    1  UNL1        0.0673
     22 CL          4.0672   -2.4988   33.0294 Cl      1  UNL1       -0.0819
     23 C           8.5791   -3.0138   22.9519 C.3     1  UNL1        0.0310
     24 C           7.2312   -3.2738   22.3473 C.ar    1  UNL1       -0.0218
     25 C           7.0831   -3.3694   20.8578 C.ar    1  UNL1       -0.0043
     26 C           5.7351   -3.6295   20.2532 C.ar    1  UNL1       -0.0003
     27 C           4.5353   -3.7939   21.1383 C.ar    1  UNL1       -0.0000
     28 C           4.6834   -3.6982   22.6279 C.ar    1  UNL1       -0.0003
     29 C           6.0313   -3.4382   23.2324 C.ar    1  UNL1       -0.0039
@<TRIPOS>BOND
     1    23    24    1
     2    24    25   ar
     3    25    26   ar
     4    26    27   ar
     5    27    28   ar
     6    28    29   ar
     7    29     1    1
     8     1     2   ar
     9     2     3   ar
    10     3     4   ar
    11     4     5   ar
    12     5     6   ar
    13     5     7    2
    14     7     8    1
    15     8     9    2
    16     8    10    1
    17    10    11    2
    18    11    12    1
    19    12    15    1
    20    15    16   ar
    21    16    17    1
    22    16    18   ar
    23    18    19   ar
    24    19    20   ar
    25    20    21   ar
    26    21    22    1
    27    12    13    2
    28    13    14    1
    29    29    24   ar
    30     6     1   ar
    31    14    10    1
    32    14     4    2
    33    21    15   ar
