@<TRIPOS>MOLECULE
*****
 24 27 0 0 0
SMALL
GASTEIGER

@<TRIPOS>ATOM
      1 N          -7.9414  -18.0759   22.3815 N.ar    1  UNL1       -0.3100
      2 C          -8.2179  -16.7750   23.0751 C.ar    1  UNL1        0.1317
      3 N          -9.4582  -16.1836   22.4736 N.ar    1  UNL1       -0.2300
      4 C          -9.9483  -17.1190   21.4084 C.ar    1  UNL1        0.0984
      5 C         -11.1271  -17.0569   20.4829 C.ar    1  UNL1        0.0206
      6 C         -11.3684  -18.1644   19.5004 C.ar    1  UNL1        0.0016
      7 C         -10.4309  -19.3339   19.4435 C.ar    1  UNL1        0.0016
      8 C          -9.2521  -19.3960   20.3690 C.ar    1  UNL1        0.0188
      9 C          -9.0109  -18.2886   21.3514 C.ar    1  UNL1        0.0789
     10 C          -7.3980  -16.1714   24.1766 C.3     1  UNL1        0.1199
     11 C          -6.0494  -15.5883   23.8747 C.3     1  UNL1        0.0871
     12 N          -5.2295  -14.9848   24.9762 N.3     1  UNL1       -0.2957
     13 C          -5.7582  -14.9643   26.3798 C.3     1  UNL1        0.0804
     14 C          -7.1068  -15.5474   26.6818 C.3     1  UNL1        0.0750
     15 S          -7.9267  -16.1509   25.5802 S.3     1  UNL1       -0.1306
     16 H          -5.0524  -14.0151   24.7141 H       1  UNL1        0.1233
     17 C          -6.7964  -19.0018   22.6677 C.3     1  UNL1        0.1339
     18 C          -1.6776  -18.4867   19.5804 C.3     1  UNL1        0.0310
     19 C          -2.9573  -18.6155   20.3522 C.ar    1  UNL1       -0.0219
     20 C          -4.2148  -19.0408   19.6538 C.ar    1  UNL1       -0.0045
     21 C          -5.4945  -19.1695   20.4256 C.ar    1  UNL1       -0.0027
     22 C          -5.5168  -18.8730   21.8959 C.ar    1  UNL1        0.0004
     23 C          -4.2592  -18.4477   22.5943 C.ar    1  UNL1       -0.0027
     24 C          -2.9795  -18.3190   21.8224 C.ar    1  UNL1       -0.0045
@<TRIPOS>BOND
     1    18    19    1
     2    19    20   ar
     3    20    21   ar
     4    21    22   ar
     5    22    17    1
     6    17     1    1
     7     1     2   ar
     8     2    10    1
     9    10    11    1
    10    11    12    1
    11    12    13    1
    12    13    14    1
    13    14    15    1
    14     2     3   ar
    15     3     4   ar
    16     4     5   ar
    17     5     6   ar
    18     6     7   ar
    19     7     8   ar
    20     8     9   ar
    21    22    23   ar
    22    23    24   ar
    23    24    19   ar
    24     9     1   ar
    25    15    10    1
    26     9     4   ar
    27    12    16    1
@<TRIPOS>MOLECULE
*****
 24 27 0 0 0
SMALL
GASTEIGER

@<TRIPOS>ATOM
      1 N          -4.2935  -18.0717   22.4407 N.ar    1  UNL1       -0.3100
      2 C          -4.3626  -16.7207   23.0888 C.ar    1  UNL1        0.1317
      3 N          -3.2011  -15.9100   22.5951 N.ar    1  UNL1       -0.2300
      4 C          -2.4143  -16.7599   21.6419 C.ar    1  UNL1        0.0984
      5 C          -1.1703  -16.4898   20.8485 C.ar    1  UNL1        0.0206
      6 C          -0.6015  -17.5559   19.9598 C.ar    1  UNL1        0.0016
      7 C          -1.2766  -18.8919   19.8644 C.ar    1  UNL1        0.0016
      8 C          -2.5206  -19.1620   20.6577 C.ar    1  UNL1        0.0188
      9 C          -3.0895  -18.0959   21.5465 C.ar    1  UNL1        0.0789
     10 C          -5.4092  -16.2611   24.0600 C.3     1  UNL1        0.1199
     11 C          -5.0802  -16.1470   25.5190 C.3     1  UNL1        0.0871
     12 N          -6.1268  -15.6875   26.4902 N.3     1  UNL1       -0.2957
     13 C          -7.5026  -15.3420   26.0025 C.3     1  UNL1        0.0804
     14 C          -7.8316  -15.4561   24.5435 C.3     1  UNL1        0.0750
     15 S          -6.7850  -15.9157   23.5723 S.3     1  UNL1       -0.1306
     16 H          -5.7584  -14.8534   26.9473 H       1  UNL1        0.1233
     17 C          -5.2591  -19.2004   22.6501 C.3     1  UNL1        0.1339
     18 C         -10.3260  -19.4476   19.4463 C.3     1  UNL1        0.0310
     19 C          -9.0593  -19.3858   20.2472 C.ar    1  UNL1       -0.0219
     20 C          -9.1215  -19.2992   21.7435 C.ar    1  UNL1       -0.0045
     21 C          -7.8547  -19.2374   22.5444 C.ar    1  UNL1       -0.0027
     22 C          -6.5257  -19.2622   21.8492 C.ar    1  UNL1        0.0004
     23 C          -6.4636  -19.3487   20.3529 C.ar    1  UNL1       -0.0027
     24 C          -7.7304  -19.4105   19.5520 C.ar    1  UNL1       -0.0045
@<TRIPOS>BOND
     1    18    19    1
     2    19    20   ar
     3    20    21   ar
     4    21    22   ar
     5    22    17    1
     6    17     1    1
     7     1     2   ar
     8     2    10    1
     9    10    11    1
    10    11    12    1
    11    12    13    1
    12    13    14    1
    13    14    15    1
    14     2     3   ar
    15     3     4   ar
    16     4     5   ar
    17     5     6   ar
    18     6     7   ar
    19     7     8   ar
    20     8     9   ar
    21    22    23   ar
    22    23    24   ar
    23    24    19   ar
    24     9     1   ar
    25    15    10    1
    26     9     4   ar
    27    12    16    1
@<TRIPOS>MOLECULE
*****
 24 27 0 0 0
SMALL
GASTEIGER

@<TRIPOS>ATOM
      1 N          -7.7375  -17.8867   21.5722 N.ar    1  UNL1       -0.3100
      2 C          -8.9417  -18.7597   21.3779 C.ar    1  UNL1        0.1317
      3 N          -8.4712  -20.0944   20.8807 N.ar    1  UNL1       -0.2300
      4 C          -6.9762  -20.0463   20.7679 C.ar    1  UNL1        0.0984
      5 C          -5.9693  -21.0687   20.3311 C.ar    1  UNL1        0.0206
      6 C          -4.5089  -20.7266   20.3218 C.ar    1  UNL1        0.0016
      7 C          -4.0554  -19.3621   20.7492 C.ar    1  UNL1        0.0016
      8 C          -5.0624  -18.3398   21.1859 C.ar    1  UNL1        0.0188
      9 C          -6.5228  -18.6819   21.1952 C.ar    1  UNL1        0.0789
     10 C         -10.3663  -18.3669   21.6354 C.3     1  UNL1        0.1199
     11 C         -11.1628  -17.6871   20.5614 C.3     1  UNL1        0.0871
     12 N         -12.5873  -17.2944   20.8190 N.3     1  UNL1       -0.2957
     13 C         -13.2155  -17.5814   22.1505 C.3     1  UNL1        0.0804
     14 C         -12.4190  -18.2612   23.2245 C.3     1  UNL1        0.0750
     15 S         -10.9944  -18.6539   22.9669 S.3     1  UNL1       -0.1306
     16 H         -13.1551  -17.7691   20.1171 H       1  UNL1        0.1233
     17 C          -7.7465  -16.4677   22.0583 C.3     1  UNL1        0.1339
     18 C          -6.8078  -15.2788   27.8639 C.3     1  UNL1        0.0310
     19 C          -7.0424  -15.5760   26.4125 C.ar    1  UNL1       -0.0219
     20 C          -8.4238  -15.9027   25.9277 C.ar    1  UNL1       -0.0045
     21 C          -8.6585  -16.2000   24.4763 C.ar    1  UNL1       -0.0027
     22 C          -7.5118  -16.1705   23.5096 C.ar    1  UNL1        0.0004
     23 C          -6.1304  -15.8437   23.9945 C.ar    1  UNL1       -0.0027
     24 C          -5.8958  -15.5465   25.4459 C.ar    1  UNL1       -0.0045
@<TRIPOS>BOND
     1    18    19    1
     2    19    20   ar
     3    20    21   ar
     4    21    22   ar
     5    22    17    1
     6    17     1    1
     7     1     2   ar
     8     2    10    1
     9    10    11    1
    10    11    12    1
    11    12    13    1
    12    13    14    1
    13    14    15    1
    14     2     3   ar
    15     3     4   ar
    16     4     5   ar
    17     5     6   ar
    18     6     7   ar
    19     7     8   ar
    20     8     9   ar
    21    22    23   ar
    22    23    24   ar
    23    24    19   ar
    24     9     1   ar
    25    15    10    1
    26     9     4   ar
    27    12    16    1
@<TRIPOS>MOLECULE
*****
 24 27 0 0 0
SMALL
GASTEIGER

@<TRIPOS>ATOM
      1 N          -6.4091  -16.6939   23.7013 N.ar    1  UNL1       -0.3100
      2 C          -4.9305  -16.7508   23.9468 C.ar    1  UNL1        0.1317
      3 N          -4.6657  -16.1912   25.3131 N.ar    1  UNL1       -0.2300
      4 C          -5.9807  -15.7885   25.9120 C.ar    1  UNL1        0.0984
      5 C          -6.3361  -15.1791   27.2357 C.ar    1  UNL1        0.0206
      6 C          -7.7691  -14.8803   27.5632 C.ar    1  UNL1        0.0016
      7 C          -8.8466  -15.1910   26.5669 C.ar    1  UNL1        0.0016
      8 C          -8.4912  -15.8004   25.2433 C.ar    1  UNL1        0.0188
      9 C          -7.0582  -16.0992   24.9158 C.ar    1  UNL1        0.0789
     10 C          -3.8979  -17.2752   22.9935 C.3     1  UNL1        0.1199
     11 C          -2.8535  -16.3532   22.4375 C.3     1  UNL1        0.0871
     12 N          -1.8210  -16.8776   21.4841 N.3     1  UNL1       -0.2957
     13 C          -1.8328  -18.3239   21.0869 C.3     1  UNL1        0.0804
     14 C          -2.8771  -19.2459   21.6429 C.3     1  UNL1        0.0750
     15 S          -3.9097  -18.7215   22.5962 S.3     1  UNL1       -0.1306
     16 H          -0.9107  -16.6957   21.9068 H       1  UNL1        0.1233
     17 C          -7.1149  -17.1514   22.4592 C.3     1  UNL1        0.1339
     18 C         -13.0667  -17.9090   22.4967 C.3     1  UNL1        0.0310
     19 C         -11.5787  -17.7196   22.4874 C.ar    1  UNL1       -0.0219
     20 C         -10.6831  -18.7885   23.0401 C.ar    1  UNL1       -0.0045
     21 C          -9.1952  -18.5990   23.0307 C.ar    1  UNL1       -0.0027
     22 C          -8.6027  -17.3407   22.4686 C.ar    1  UNL1        0.0004
     23 C          -9.4984  -16.2719   21.9159 C.ar    1  UNL1       -0.0027
     24 C         -10.9864  -16.4614   21.9253 C.ar    1  UNL1       -0.0045
@<TRIPOS>BOND
     1    18    19    1
     2    19    20   ar
     3    20    21   ar
     4    21    22   ar
     5    22    17    1
     6    17     1    1
     7     1     2   ar
     8     2    10    1
     9    10    11    1
    10    11    12    1
    11    12    13    1
    12    13    14    1
    13    14    15    1
    14     2     3   ar
    15     3     4   ar
    16     4     5   ar
    17     5     6   ar
    18     6     7   ar
    19     7     8   ar
    20     8     9   ar
    21    22    23   ar
    22    23    24   ar
    23    24    19   ar
    24     9     1   ar
    25    15    10    1
    26     9     4   ar
    27    12    16    1
@<TRIPOS>MOLECULE
*****
 24 27 0 0 0
SMALL
GASTEIGER

@<TRIPOS>ATOM
      1 N          -7.1811  -19.2262   21.3694 N.ar    1  UNL1       -0.3100
      2 C          -8.2304  -18.1780   21.5931 C.ar    1  UNL1        0.1317
      3 N          -9.2927  -18.3554   20.5490 N.ar    1  UNL1       -0.2300
      4 C          -8.9000  -19.5133   19.6801 C.ar    1  UNL1        0.0984
      5 C          -9.5621  -20.1471   18.4928 C.ar    1  UNL1        0.0206
      6 C          -8.9191  -21.3192   17.8125 C.ar    1  UNL1        0.0016
      7 C          -7.6140  -21.8574   18.3195 C.ar    1  UNL1        0.0016
      8 C          -6.9519  -21.2236   19.5068 C.ar    1  UNL1        0.0188
      9 C          -7.5949  -20.0515   20.1872 C.ar    1  UNL1        0.0789
     10 C          -8.2194  -17.1353   22.6714 C.3     1  UNL1        0.1199
     11 C          -7.6406  -15.7790   22.3973 C.3     1  UNL1        0.0871
     12 N          -7.6295  -14.7363   23.4756 N.3     1  UNL1       -0.2957
     13 C          -8.1973  -15.0501   24.8281 C.3     1  UNL1        0.0804
     14 C          -8.7762  -16.4064   25.1022 C.3     1  UNL1        0.0750
     15 S          -8.7872  -17.4491   24.0238 S.3     1  UNL1       -0.1306
     16 H          -8.1496  -13.9357   23.1164 H       1  UNL1        0.1233
     17 C          -5.9365  -19.4159   22.1848 C.3     1  UNL1        0.1339
     18 C          -0.7049  -17.2243   20.2284 C.3     1  UNL1        0.0310
     19 C          -2.0128  -17.7722   20.7176 C.ar    1  UNL1       -0.0219
     20 C          -2.8883  -18.5628   19.7909 C.ar    1  UNL1       -0.0045
     21 C          -4.1961  -19.1107   20.2801 C.ar    1  UNL1       -0.0027
     22 C          -4.6286  -18.8680   21.6958 C.ar    1  UNL1        0.0004
     23 C          -3.7531  -18.0774   22.6223 C.ar    1  UNL1       -0.0027
     24 C          -2.4453  -17.5295   22.1332 C.ar    1  UNL1       -0.0045
@<TRIPOS>BOND
     1    18    19    1
     2    19    20   ar
     3    20    21   ar
     4    21    22   ar
     5    22    17    1
     6    17     1    1
     7     1     2   ar
     8     2    10    1
     9    10    11    1
    10    11    12    1
    11    12    13    1
    12    13    14    1
    13    14    15    1
    14     2     3   ar
    15     3     4   ar
    16     4     5   ar
    17     5     6   ar
    18     6     7   ar
    19     7     8   ar
    20     8     9   ar
    21    22    23   ar
    22    23    24   ar
    23    24    19   ar
    24     9     1   ar
    25    15    10    1
    26     9     4   ar
    27    12    16    1
@<TRIPOS>MOLECULE
*****
 24 27 0 0 0
SMALL
GASTEIGER

@<TRIPOS>ATOM
      1 N         -13.1747   -5.1177   18.0879 N.ar    1  UNL1       -0.3100
      2 C         -12.8183   -3.8510   18.8079 C.ar    1  UNL1        0.1317
      3 N         -11.4064   -3.9780   19.2981 N.ar    1  UNL1       -0.2300
      4 C         -10.8901   -5.3232   18.8811 C.ar    1  UNL1        0.0984
      5 C          -9.5661   -5.9977   19.0858 C.ar    1  UNL1        0.0206
      6 C          -9.3349   -7.3766   18.5425 C.ar    1  UNL1        0.0016
      7 C         -10.4278   -8.0810   17.7945 C.ar    1  UNL1        0.0016
      8 C         -11.7518   -7.4065   17.5898 C.ar    1  UNL1        0.0188
      9 C         -11.9830   -6.0276   18.1331 C.ar    1  UNL1        0.0789
     10 C         -13.7162   -2.6655   19.0034 C.3     1  UNL1        0.1199
     11 C         -14.7576   -2.6832   20.0828 C.3     1  UNL1        0.0871
     12 N         -15.6555   -1.4977   20.2783 N.3     1  UNL1       -0.2957
     13 C         -15.5121   -0.2944   19.3943 C.3     1  UNL1        0.0804
     14 C         -14.4707   -0.2766   18.3149 C.3     1  UNL1        0.0750
     15 S         -13.5728   -1.4622   18.1194 S.3     1  UNL1       -0.1306
     16 H         -15.5159   -1.1774   21.2366 H       1  UNL1        0.1233
     17 C         -14.4915   -5.4213   17.4369 C.3     1  UNL1        0.1339
     18 C         -18.8321   -8.1327   20.5687 C.3     1  UNL1        0.0310
     19 C         -17.7470   -7.4548   19.7857 C.ar    1  UNL1       -0.0219
     20 C         -16.4652   -8.1791   19.4983 C.ar    1  UNL1       -0.0045
     21 C         -15.3801   -7.5013   18.7153 C.ar    1  UNL1       -0.0027
     22 C         -15.5766   -6.0991   18.2198 C.ar    1  UNL1        0.0004
     23 C         -16.8584   -5.3749   18.5073 C.ar    1  UNL1       -0.0027
     24 C         -17.9435   -6.0528   19.2903 C.ar    1  UNL1       -0.0045
@<TRIPOS>BOND
     1    18    19    1
     2    19    20   ar
     3    20    21   ar
     4    21    22   ar
     5    22    17    1
     6    17     1    1
     7     1     2   ar
     8     2    10    1
     9    10    11    1
    10    11    12    1
    11    12    13    1
    12    13    14    1
    13    14    15    1
    14     2     3   ar
    15     3     4   ar
    16     4     5   ar
    17     5     6   ar
    18     6     7   ar
    19     7     8   ar
    20     8     9   ar
    21    22    23   ar
    22    23    24   ar
    23    24    19   ar
    24     9     1   ar
    25    15    10    1
    26     9     4   ar
    27    12    16    1
@<TRIPOS>MOLECULE
*****
 24 27 0 0 0
SMALL
GASTEIGER

@<TRIPOS>ATOM
      1 N          -6.0798  -18.0448   22.6910 N.ar    1  UNL1       -0.3100
      2 C          -6.7185  -19.2488   22.0646 C.ar    1  UNL1        0.1317
      3 N          -5.6297  -20.1021   21.4846 N.ar    1  UNL1       -0.2300
      4 C          -4.3181  -19.4255   21.7526 C.ar    1  UNL1        0.0984
      5 C          -2.9064  -19.8029   21.4141 C.ar    1  UNL1        0.0206
      6 C          -1.7729  -18.9088   21.8211 C.ar    1  UNL1        0.0016
      7 C          -2.0511  -17.6373   22.5667 C.ar    1  UNL1        0.0016
      8 C          -3.4628  -17.2599   22.9053 C.ar    1  UNL1        0.0188
      9 C          -4.5963  -18.1540   22.4982 C.ar    1  UNL1        0.0789
     10 C          -8.1881  -19.5472   22.0250 C.3     1  UNL1        0.1199
     11 C          -8.8712  -20.1136   23.2343 C.3     1  UNL1        0.0871
     12 N         -10.3407  -20.4120   23.1947 N.3     1  UNL1       -0.2957
     13 C         -11.1271  -20.1438   21.9459 C.3     1  UNL1        0.0804
     14 C         -10.4439  -19.5773   20.7366 C.3     1  UNL1        0.0750
     15 S          -8.9744  -19.2790   20.7762 S.3     1  UNL1       -0.1306
     16 H         -10.7726  -19.8633   23.9382 H       1  UNL1        0.1233
     17 C          -6.7985  -16.9278   23.3879 C.3     1  UNL1        0.1339
     18 C         -12.6195  -15.9641   22.2984 C.3     1  UNL1        0.0310
     19 C         -11.1642  -16.2050   22.5708 C.ar    1  UNL1       -0.0219
     20 C         -10.7394  -16.8601   23.8516 C.ar    1  UNL1       -0.0045
     21 C          -9.2841  -17.1009   24.1239 C.ar    1  UNL1       -0.0027
     22 C          -8.2537  -16.6868   23.1155 C.ar    1  UNL1        0.0004
     23 C          -8.6786  -16.0318   21.8348 C.ar    1  UNL1       -0.0027
     24 C         -10.1339  -15.7909   21.5624 C.ar    1  UNL1       -0.0045
@<TRIPOS>BOND
     1    18    19    1
     2    19    20   ar
     3    20    21   ar
     4    21    22   ar
     5    22    17    1
     6    17     1    1
     7     1     2   ar
     8     2    10    1
     9    10    11    1
    10    11    12    1
    11    12    13    1
    12    13    14    1
    13    14    15    1
    14     2     3   ar
    15     3     4   ar
    16     4     5   ar
    17     5     6   ar
    18     6     7   ar
    19     7     8   ar
    20     8     9   ar
    21    22    23   ar
    22    23    24   ar
    23    24    19   ar
    24     9     1   ar
    25    15    10    1
    26     9     4   ar
    27    12    16    1
@<TRIPOS>MOLECULE
*****
 24 27 0 0 0
SMALL
GASTEIGER

@<TRIPOS>ATOM
      1 N          -6.9197  -17.4260   23.1180 N.ar    1  UNL1       -0.3100
      2 C          -5.4464  -17.6871   23.0122 C.ar    1  UNL1        0.1317
      3 N          -4.7687  -16.9882   24.1534 N.ar    1  UNL1       -0.2300
      4 C          -5.8231  -16.2952   24.9645 C.ar    1  UNL1        0.0984
      5 C          -5.7445  -15.4527   26.2030 C.ar    1  UNL1        0.0206
      6 C          -6.9953  -14.8808   26.8016 C.ar    1  UNL1        0.0016
      7 C          -8.3247  -15.1514   26.1618 C.ar    1  UNL1        0.0016
      8 C          -8.4033  -15.9939   24.9232 C.ar    1  UNL1        0.0188
      9 C          -7.1525  -16.5658   24.3246 C.ar    1  UNL1        0.0789
     10 C          -4.7696  -18.5037   21.9515 C.3     1  UNL1        0.1199
     11 C          -5.5738  -19.0904   20.8294 C.3     1  UNL1        0.0871
     12 N          -4.8970  -19.9070   19.7687 N.3     1  UNL1       -0.2957
     13 C          -3.4161  -20.1369   19.8300 C.3     1  UNL1        0.0804
     14 C          -2.6119  -19.5502   20.9520 C.3     1  UNL1        0.0750
     15 S          -3.2886  -18.7336   22.0128 S.3     1  UNL1       -0.1306
     16 H          -5.0872  -19.4482   18.8778 H       1  UNL1        0.1233
     17 C          -7.9749  -17.9357   22.1817 C.3     1  UNL1        0.1339
     18 C         -13.7296  -17.9703   23.8795 C.3     1  UNL1        0.0310
     19 C         -12.2909  -17.9617   23.4551 C.ar    1  UNL1       -0.0219
     20 C         -11.7883  -16.8932   22.5300 C.ar    1  UNL1       -0.0045
     21 C         -10.3496  -16.8846   22.1055 C.ar    1  UNL1       -0.0027
     22 C          -9.4135  -17.9444   22.6061 C.ar    1  UNL1        0.0004
     23 C          -9.9162  -19.0129   23.5312 C.ar    1  UNL1       -0.0027
     24 C         -11.3548  -19.0215   23.9556 C.ar    1  UNL1       -0.0045
@<TRIPOS>BOND
     1    18    19    1
     2    19    20   ar
     3    20    21   ar
     4    21    22   ar
     5    22    17    1
     6    17     1    1
     7     1     2   ar
     8     2    10    1
     9    10    11    1
    10    11    12    1
    11    12    13    1
    12    13    14    1
    13    14    15    1
    14     2     3   ar
    15     3     4   ar
    16     4     5   ar
    17     5     6   ar
    18     6     7   ar
    19     7     8   ar
    20     8     9   ar
    21    22    23   ar
    22    23    24   ar
    23    24    19   ar
    24     9     1   ar
    25    15    10    1
    26     9     4   ar
    27    12    16    1
@<TRIPOS>MOLECULE
*****
 24 27 0 0 0
SMALL
GASTEIGER

@<TRIPOS>ATOM
      1 N          -6.2968  -17.8863   22.3287 N.ar    1  UNL1       -0.3100
      2 C          -6.9272  -19.1995   21.9705 C.ar    1  UNL1        0.1317
      3 N          -5.8274  -20.1852   21.7080 N.ar    1  UNL1       -0.2300
      4 C          -4.5174  -19.4813   21.9040 C.ar    1  UNL1        0.0984
      5 C          -3.0979  -19.9505   21.7826 C.ar    1  UNL1        0.0206
      6 C          -1.9685  -18.9990   22.0449 C.ar    1  UNL1        0.0016
      7 C          -2.2586  -17.5782   22.4285 C.ar    1  UNL1        0.0016
      8 C          -3.6781  -17.1089   22.5499 C.ar    1  UNL1        0.0188
      9 C          -4.8075  -18.0605   22.2876 C.ar    1  UNL1        0.0789
     10 C          -8.3988  -19.4779   21.8891 C.3     1  UNL1        0.1199
     11 C          -9.1076  -19.3869   20.5703 C.3     1  UNL1        0.0871
     12 N         -10.5792  -19.6654   20.4889 N.3     1  UNL1       -0.2957
     13 C         -11.3422  -20.0349   21.7264 C.3     1  UNL1        0.0804
     14 C         -10.6335  -20.1259   23.0452 C.3     1  UNL1        0.0750
     15 S          -9.1618  -19.8475   23.1266 S.3     1  UNL1       -0.1306
     16 H         -10.6973  -20.4346   19.8295 H       1  UNL1        0.1233
     17 C          -7.0274  -16.6211   22.6684 C.3     1  UNL1        0.1339
     18 C          -7.1106  -14.6318   28.3284 C.3     1  UNL1        0.0310
     19 C          -7.0899  -15.1292   26.9134 C.ar    1  UNL1       -0.0219
     20 C          -5.8149  -15.0918   26.1240 C.ar    1  UNL1       -0.0045
     21 C          -5.7941  -15.5891   24.7090 C.ar    1  UNL1       -0.0027
     22 C          -7.0482  -16.1238   24.0833 C.ar    1  UNL1        0.0004
     23 C          -8.3232  -16.1611   24.8728 C.ar    1  UNL1       -0.0027
     24 C          -8.3439  -15.6638   26.2878 C.ar    1  UNL1       -0.0045
@<TRIPOS>BOND
     1    18    19    1
     2    19    20   ar
     3    20    21   ar
     4    21    22   ar
     5    22    17    1
     6    17     1    1
     7     1     2   ar
     8     2    10    1
     9    10    11    1
    10    11    12    1
    11    12    13    1
    12    13    14    1
    13    14    15    1
    14     2     3   ar
    15     3     4   ar
    16     4     5   ar
    17     5     6   ar
    18     6     7   ar
    19     7     8   ar
    20     8     9   ar
    21    22    23   ar
    22    23    24   ar
    23    24    19   ar
    24     9     1   ar
    25    15    10    1
    26     9     4   ar
    27    12    16    1
