@<TRIPOS>MOLECULE
*****
 19 21 0 0 0
SMALL
GASTEIGER

@<TRIPOS>ATOM
      1 O          -7.3807  -18.0025   20.7614 O.2     1  UNL1       -0.2701
      2 C          -7.9668  -18.9921   21.7243 C.2     1  UNL1        0.2458
      3 N          -7.1778  -20.2015   22.1301 N.am    1  UNL1       -0.3011
      4 H          -7.4737  -20.9045   22.7525 H       1  UNL1        0.1497
      5 C          -4.8222  -20.1095   20.8618 C.3     1  UNL1        0.0878
      6 C          -3.9775  -19.3536   21.6066 C.3     1  UNL1        0.0919
      7 N          -3.4292  -18.9028   22.0238 N.3     1  UNL1       -0.2713
      8 C          -2.9561  -19.5074   20.7352 C.3     1  UNL1        0.0722
      9 C          -3.8902  -20.3433   19.9115 C.3     1  UNL1        0.0191
     10 C          -5.2975  -20.5747   20.3765 C.3     1  UNL1        0.0221
     11 C          -5.7705  -19.9701   21.6651 C.3     1  UNL1        0.0191
     12 C          -4.8364  -19.1342   22.4888 C.3     1  UNL1        0.0722
     13 C          -9.3420  -18.7722   22.2815 C.ar    1  UNL1        0.0534
     14 C         -10.4854  -18.4694   21.3590 C.ar    1  UNL1        0.0054
     15 C         -11.8606  -18.2494   21.9161 C.ar    1  UNL1        0.0115
     16 C         -12.0924  -18.3323   23.3959 C.ar    1  UNL1        0.0577
     17 CL        -13.4676  -18.1124   23.9530 Cl      1  UNL1       -0.0822
     18 C         -10.9490  -18.6351   24.3183 C.ar    1  UNL1        0.0115
     19 C          -9.5738  -18.8551   23.7611 C.ar    1  UNL1        0.0054
@<TRIPOS>BOND
     1     1     2    2
     2     2     3   am
     3     5     3    1
     4     5     6    1
     5     6     7    1
     6     7     8    1
     7     8     9    1
     8     9    10    1
     9    10    11    1
    10    11    12    1
    11     2    13    1
    12    13    14   ar
    13    14    15   ar
    14    15    16   ar
    15    16    17    1
    16    16    18   ar
    17    18    19   ar
    18    10     5    1
    19    19    13   ar
    20    12     7    1
    21     3     4    1
@<TRIPOS>MOLECULE
*****
 19 21 0 0 0
SMALL
GASTEIGER

@<TRIPOS>ATOM
      1 O          -6.4377  -20.7642   20.7596 O.2     1  UNL1       -0.2701
      2 C          -5.9590  -19.3436   20.7063 C.2     1  UNL1        0.2458
      3 N          -6.9442  -18.2163   20.7984 N.am    1  UNL1       -0.3011
      4 H          -6.7297  -17.2557   20.7732 H       1  UNL1        0.1497
      5 C          -9.3887  -19.2791   21.0437 C.3     1  UNL1        0.0878
      6 C          -9.5889  -19.5650   22.3544 C.3     1  UNL1        0.0919
      7 N          -9.7562  -19.7558   23.1377 N.3     1  UNL1       -0.2713
      8 C         -10.8302  -20.0514   22.1331 C.3     1  UNL1        0.0722
      9 C         -10.6088  -19.7352   20.6836 C.3     1  UNL1        0.0191
     10 C          -9.3135  -19.1235   20.2388 C.3     1  UNL1        0.0221
     11 C          -8.2395  -18.8280   21.2433 C.3     1  UNL1        0.0191
     12 C          -8.4609  -19.1441   22.6928 C.3     1  UNL1        0.0722
     13 C          -4.4951  -19.0504   20.5609 C.ar    1  UNL1        0.0534
     14 C          -3.5716  -19.2463   21.7266 C.ar    1  UNL1        0.0054
     15 C          -2.1077  -18.9531   21.5812 C.ar    1  UNL1        0.0115
     16 C          -1.5674  -18.4640   20.2701 C.ar    1  UNL1        0.0577
     17 CL         -0.1036  -18.1708   20.1247 Cl      1  UNL1       -0.0822
     18 C          -2.4909  -18.2681   19.1045 C.ar    1  UNL1        0.0115
     19 C          -3.9548  -18.5613   19.2499 C.ar    1  UNL1        0.0054
@<TRIPOS>BOND
     1     1     2    2
     2     2     3   am
     3     5     3    1
     4     5     6    1
     5     6     7    1
     6     7     8    1
     7     8     9    1
     8     9    10    1
     9    10    11    1
    10    11    12    1
    11     2    13    1
    12    13    14   ar
    13    14    15   ar
    14    15    16   ar
    15    16    17    1
    16    16    18   ar
    17    18    19   ar
    18    10     5    1
    19    19    13   ar
    20    12     7    1
    21     3     4    1
@<TRIPOS>MOLECULE
*****
 19 21 0 0 0
SMALL
GASTEIGER

@<TRIPOS>ATOM
      1 O          -8.5849  -17.0629   21.6625 O.2     1  UNL1       -0.2701
      2 C          -8.1702  -18.5034   21.6072 C.2     1  UNL1        0.2458
      3 N          -9.2069  -19.5854   21.6747 N.am    1  UNL1       -0.3011
      4 H          -9.0357  -20.5545   21.6462 H       1  UNL1        0.1497
      5 C         -11.6046  -18.4143   21.8866 C.3     1  UNL1        0.0878
      6 C         -11.9150  -18.3364   23.2046 C.3     1  UNL1        0.0919
      7 N         -12.1468  -18.2669   23.9916 N.3     1  UNL1       -0.2713
      8 C         -13.1019  -17.7369   22.9637 C.3     1  UNL1        0.0722
      9 C         -12.7587  -17.8231   21.5060 C.3     1  UNL1        0.0191
     10 C         -11.4604  -18.4393   21.0764 C.3     1  UNL1        0.0221
     11 C         -10.5052  -18.9693   22.1044 C.3     1  UNL1        0.0191
     12 C         -10.8484  -18.8831   23.5620 C.3     1  UNL1        0.0722
     13 C          -6.7189  -18.8619   21.4842 C.ar    1  UNL1        0.0534
     14 C          -6.2403  -19.6589   20.3070 C.ar    1  UNL1        0.0054
     15 C          -4.7890  -20.0173   20.1840 C.ar    1  UNL1        0.0115
     16 C          -3.8162  -19.5787   21.2383 C.ar    1  UNL1        0.0577
     17 CL         -2.3648  -19.9371   21.1154 Cl      1  UNL1       -0.0822
     18 C          -4.2948  -18.7817   22.4154 C.ar    1  UNL1        0.0115
     19 C          -5.7461  -18.4233   22.5384 C.ar    1  UNL1        0.0054
@<TRIPOS>BOND
     1     1     2    2
     2     2     3   am
     3     5     3    1
     4     5     6    1
     5     6     7    1
     6     7     8    1
     7     8     9    1
     8     9    10    1
     9    10    11    1
    10    11    12    1
    11     2    13    1
    12    13    14   ar
    13    14    15   ar
    14    15    16   ar
    15    16    17    1
    16    16    18   ar
    17    18    19   ar
    18    10     5    1
    19    19    13   ar
    20    12     7    1
    21     3     4    1
@<TRIPOS>MOLECULE
*****
 19 21 0 0 0
SMALL
GASTEIGER

@<TRIPOS>ATOM
      1 O          -6.5176  -17.2131   22.3990 O.2     1  UNL1       -0.2701
      2 C          -7.3681  -18.4487   22.4073 C.2     1  UNL1        0.2458
      3 N          -6.7549  -19.7834   22.1033 N.am    1  UNL1       -0.3011
      4 H          -7.2269  -20.6472   22.0841 H       1  UNL1        0.1497
      5 C          -4.1496  -19.4005   21.6224 C.3     1  UNL1        0.0878
      6 C          -3.9991  -19.1838   20.2920 C.3     1  UNL1        0.0919
      7 N          -3.8582  -19.0476   19.4923 N.3     1  UNL1       -0.2713
      8 C          -2.6594  -19.0391   20.3938 C.3     1  UNL1        0.0722
      9 C          -2.8257  -19.2786   21.8651 C.3     1  UNL1        0.0191
     10 C          -4.1909  -19.5268   22.4350 C.3     1  UNL1        0.0221
     11 C          -5.3897  -19.5353   21.5335 C.3     1  UNL1        0.0191
     12 C          -5.2234  -19.2957   20.0621 C.3     1  UNL1        0.0722
     13 C          -8.8319  -18.3495   22.7195 C.ar    1  UNL1        0.0534
     14 C          -9.4846  -17.0038   22.8350 C.ar    1  UNL1        0.0054
     15 C         -10.9484  -16.9046   23.1473 C.ar    1  UNL1        0.0115
     16 C         -11.7595  -18.1510   23.3441 C.ar    1  UNL1        0.0577
     17 CL        -13.2232  -18.0517   23.6563 Cl      1  UNL1       -0.0822
     18 C         -11.1068  -19.4965   23.2286 C.ar    1  UNL1        0.0115
     19 C          -9.6430  -19.5958   22.9163 C.ar    1  UNL1        0.0054
@<TRIPOS>BOND
     1     1     2    2
     2     2     3   am
     3     5     3    1
     4     5     6    1
     5     6     7    1
     6     7     8    1
     7     8     9    1
     8     9    10    1
     9    10    11    1
    10    11    12    1
    11     2    13    1
    12    13    14   ar
    13    14    15   ar
    14    15    16   ar
    15    16    17    1
    16    16    18   ar
    17    18    19   ar
    18    10     5    1
    19    19    13   ar
    20    12     7    1
    21     3     4    1
@<TRIPOS>MOLECULE
*****
 19 21 0 0 0
SMALL
GASTEIGER

@<TRIPOS>ATOM
      1 O          -8.1255  -16.7950   21.5987 O.2     1  UNL1       -0.2701
      2 C          -7.7672  -18.2507   21.6524 C.2     1  UNL1        0.2458
      3 N          -8.8387  -19.2797   21.8595 N.am    1  UNL1       -0.3011
      4 H          -8.7049  -20.2538   21.9090 H       1  UNL1        0.1497
      5 C         -11.1792  -17.9978   22.0707 C.3     1  UNL1        0.0878
      6 C         -11.6164  -17.7199   20.8172 C.3     1  UNL1        0.0919
      7 N         -11.9224  -17.5295   20.0769 N.3     1  UNL1       -0.2713
      8 C         -12.7390  -17.1154   21.2650 C.3     1  UNL1        0.0722
      9 C         -12.2556  -17.4228   22.6513 C.3     1  UNL1        0.0191
     10 C         -10.9554  -18.1442   22.8494 C.3     1  UNL1        0.0221
     11 C         -10.1388  -18.5582   21.6613 C.3     1  UNL1        0.0191
     12 C         -10.6223  -18.2509   20.2751 C.3     1  UNL1        0.0722
     13 C          -6.3373  -18.6772   21.4990 C.ar    1  UNL1        0.0534
     14 C          -5.8755  -19.3060   20.2178 C.ar    1  UNL1        0.0054
     15 C          -4.4457  -19.7326   20.0644 C.ar    1  UNL1        0.0115
     16 C          -3.4776  -19.5304   21.1922 C.ar    1  UNL1        0.0577
     17 CL         -2.0477  -19.9569   21.0388 Cl      1  UNL1       -0.0822
     18 C          -3.9393  -18.9016   22.4733 C.ar    1  UNL1        0.0115
     19 C          -5.3692  -18.4750   22.6267 C.ar    1  UNL1        0.0054
@<TRIPOS>BOND
     1     1     2    2
     2     2     3   am
     3     5     3    1
     4     5     6    1
     5     6     7    1
     6     7     8    1
     7     8     9    1
     8     9    10    1
     9    10    11    1
    10    11    12    1
    11     2    13    1
    12    13    14   ar
    13    14    15   ar
    14    15    16   ar
    15    16    17    1
    16    16    18   ar
    17    18    19   ar
    18    10     5    1
    19    19    13   ar
    20    12     7    1
    21     3     4    1
@<TRIPOS>MOLECULE
*****
 19 21 0 0 0
SMALL
GASTEIGER

@<TRIPOS>ATOM
      1 O          -4.1190  -14.8705   22.6761 O.2     1  UNL1       -0.2701
      2 C          -4.5424  -15.9837   23.5881 C.2     1  UNL1        0.2458
      3 N          -3.8918  -17.3309   23.4792 N.am    1  UNL1       -0.3011
      4 H          -4.0991  -18.1207   24.0292 H       1  UNL1        0.1497
      5 C          -2.0672  -17.2069   21.5244 C.3     1  UNL1        0.0878
      6 C          -1.8421  -18.4699   21.0842 C.3     1  UNL1        0.0919
      7 N          -1.6723  -19.2175   20.7840 N.3     1  UNL1       -0.2713
      8 C          -0.9360  -18.0658   20.1667 C.3     1  UNL1        0.0722
      9 C          -1.1849  -16.6690   20.6536 C.3     1  UNL1        0.0191
     10 C          -2.1702  -16.4241   21.7577 C.3     1  UNL1        0.0221
     11 C          -2.9065  -17.5758   22.3750 C.3     1  UNL1        0.0191
     12 C          -2.6576  -18.9726   21.8882 C.3     1  UNL1        0.0722
     13 C          -5.6163  -15.7497   24.6088 C.ar    1  UNL1        0.0534
     14 C          -7.0490  -15.6395   24.1784 C.ar    1  UNL1        0.0054
     15 C          -8.1229  -15.4054   25.1991 C.ar    1  UNL1        0.0115
     16 C          -7.7641  -15.2816   26.6504 C.ar    1  UNL1        0.0577
     17 CL         -8.8380  -15.0476   27.6711 Cl      1  UNL1       -0.0822
     18 C          -6.3314  -15.3919   27.0808 C.ar    1  UNL1        0.0115
     19 C          -5.2575  -15.6259   26.0600 C.ar    1  UNL1        0.0054
@<TRIPOS>BOND
     1     1     2    2
     2     2     3   am
     3     5     3    1
     4     5     6    1
     5     6     7    1
     6     7     8    1
     7     8     9    1
     8     9    10    1
     9    10    11    1
    10    11    12    1
    11     2    13    1
    12    13    14   ar
    13    14    15   ar
    14    15    16   ar
    15    16    17    1
    16    16    18   ar
    17    18    19   ar
    18    10     5    1
    19    19    13   ar
    20    12     7    1
    21     3     4    1
@<TRIPOS>MOLECULE
*****
 19 21 0 0 0
SMALL
GASTEIGER

@<TRIPOS>ATOM
      1 O          -7.4467  -17.5170   22.8826 O.2     1  UNL1       -0.2701
      2 C          -6.8718  -18.8025   22.3657 C.2     1  UNL1        0.2458
      3 N          -7.6799  -20.0645   22.4289 N.am    1  UNL1       -0.3011
      4 H          -7.3923  -20.9530   22.1173 H       1  UNL1        0.1497
      5 C         -10.0426  -19.4727   23.5394 C.3     1  UNL1        0.0878
      6 C         -10.8588  -19.0099   22.5600 C.3     1  UNL1        0.0919
      7 N         -11.3903  -18.7233   22.0003 N.3     1  UNL1       -0.2713
      8 C         -11.8916  -18.8205   23.4107 C.3     1  UNL1        0.0722
      9 C         -10.9890  -19.3323   24.4938 C.3     1  UNL1        0.0191
     10 C          -9.5851  -19.7470   24.1666 C.3     1  UNL1        0.0221
     11 C          -9.0838  -19.6498   22.7562 C.3     1  UNL1        0.0191
     12 C          -9.9864  -19.1380   21.6730 C.3     1  UNL1        0.0722
     13 C          -5.4887  -18.8258   21.7855 C.ar    1  UNL1        0.0534
     14 C          -4.3151  -18.4222   22.6280 C.ar    1  UNL1        0.0054
     15 C          -2.9320  -18.4455   22.0478 C.ar    1  UNL1        0.0115
     16 C          -2.7226  -18.8723   20.6251 C.ar    1  UNL1        0.0577
     17 CL         -1.3395  -18.8956   20.0449 Cl      1  UNL1       -0.0822
     18 C          -3.8962  -19.2759   19.7827 C.ar    1  UNL1        0.0115
     19 C          -5.2793  -19.2526   20.3629 C.ar    1  UNL1        0.0054
@<TRIPOS>BOND
     1     1     2    2
     2     2     3   am
     3     5     3    1
     4     5     6    1
     5     6     7    1
     6     7     8    1
     7     8     9    1
     8     9    10    1
     9    10    11    1
    10    11    12    1
    11     2    13    1
    12    13    14   ar
    13    14    15   ar
    14    15    16   ar
    15    16    17    1
    16    16    18   ar
    17    18    19   ar
    18    10     5    1
    19    19    13   ar
    20    12     7    1
    21     3     4    1
@<TRIPOS>MOLECULE
*****
 19 21 0 0 0
SMALL
GASTEIGER

@<TRIPOS>ATOM
      1 O          -5.7161  -18.5539   20.5122 O.2     1  UNL1       -0.2701
      2 C          -5.9759  -18.3232   21.9715 C.2     1  UNL1        0.2458
      3 N          -4.8397  -17.9890   22.8919 N.am    1  UNL1       -0.3011
      4 H          -4.9079  -17.8209   23.8595 H       1  UNL1        0.1497
      5 C          -2.5934  -17.9307   21.4370 C.3     1  UNL1        0.0878
      6 C          -2.1846  -19.2105   21.2507 C.3     1  UNL1        0.0919
      7 N          -1.8974  -19.9694   21.1112 N.3     1  UNL1       -0.2713
      8 C          -1.1043  -18.8367   20.5300 C.3     1  UNL1        0.0722
      9 C          -1.5564  -17.4213   20.7360 C.3     1  UNL1        0.0191
     10 C          -2.8015  -17.1388   21.5233 C.3     1  UNL1        0.0221
     11 C          -3.5946  -18.2715   22.1046 C.3     1  UNL1        0.0191
     12 C          -3.1425  -19.6868   21.8985 C.3     1  UNL1        0.0722
     13 C          -7.3720  -18.4266   22.5103 C.ar    1  UNL1        0.0534
     14 C          -8.0771  -17.1993   23.0070 C.ar    1  UNL1        0.0054
     15 C          -9.4731  -17.3028   23.5458 C.ar    1  UNL1        0.0115
     16 C         -10.1641  -18.6335   23.5878 C.ar    1  UNL1        0.0577
     17 CL        -11.5602  -18.7370   24.1266 Cl      1  UNL1       -0.0822
     18 C          -9.4591  -19.8607   23.0911 C.ar    1  UNL1        0.0115
     19 C          -8.0630  -19.7573   22.5523 C.ar    1  UNL1        0.0054
@<TRIPOS>BOND
     1     1     2    2
     2     2     3   am
     3     5     3    1
     4     5     6    1
     5     6     7    1
     6     7     8    1
     7     8     9    1
     8     9    10    1
     9    10    11    1
    10    11    12    1
    11     2    13    1
    12    13    14   ar
    13    14    15   ar
    14    15    16   ar
    15    16    17    1
    16    16    18   ar
    17    18    19   ar
    18    10     5    1
    19    19    13   ar
    20    12     7    1
    21     3     4    1
@<TRIPOS>MOLECULE
*****
 19 21 0 0 0
SMALL
GASTEIGER

@<TRIPOS>ATOM
      1 O         -13.5838   -6.9537   16.6812 O.2     1  UNL1       -0.2701
      2 C         -14.0460   -7.7727   17.8499 C.2     1  UNL1        0.2458
      3 N         -13.1777   -7.9008   19.0662 N.am    1  UNL1       -0.3011
      4 H         -13.3914   -8.4127   19.8795 H       1  UNL1        0.1497
      5 C         -10.9440   -6.4905   18.6336 C.3     1  UNL1        0.0878
      6 C         -11.1962   -5.1993   18.9637 C.3     1  UNL1        0.0919
      7 N         -11.3017   -4.4045   19.1511 N.3     1  UNL1       -0.2713
      8 C          -9.9454   -4.7983   18.6460 C.3     1  UNL1        0.0722
      9 C          -9.6664   -6.2261   18.2810 C.3     1  UNL1        0.0191
     10 C         -10.7439   -7.2603   18.4210 C.3     1  UNL1        0.0221
     11 C         -12.1002   -6.8666   18.9262 C.3     1  UNL1        0.0191
     12 C         -12.3792   -5.4387   19.2912 C.3     1  UNL1        0.0722
     13 C         -15.3766   -8.4635   17.8021 C.ar    1  UNL1        0.0534
     14 C         -16.5567   -7.7761   17.1817 C.ar    1  UNL1        0.0054
     15 C         -17.8873   -8.4670   17.1339 C.ar    1  UNL1        0.0115
     16 C         -18.0378   -9.8452   17.7066 C.ar    1  UNL1        0.0577
     17 CL        -19.3683  -10.5361   17.6588 Cl      1  UNL1       -0.0822
     18 C         -16.8577  -10.5326   18.3270 C.ar    1  UNL1        0.0115
     19 C         -15.5271   -9.8417   18.3747 C.ar    1  UNL1        0.0054
@<TRIPOS>BOND
     1     1     2    2
     2     2     3   am
     3     5     3    1
     4     5     6    1
     5     6     7    1
     6     7     8    1
     7     8     9    1
     8     9    10    1
     9    10    11    1
    10    11    12    1
    11     2    13    1
    12    13    14   ar
    13    14    15   ar
    14    15    16   ar
    15    16    17    1
    16    16    18   ar
    17    18    19   ar
    18    10     5    1
    19    19    13   ar
    20    12     7    1
    21     3     4    1
