@<TRIPOS>MOLECULE
*****
 28 30 0 0 0
SMALL
GASTEIGER

@<TRIPOS>ATOM
      1 N          -7.6138  -16.2388   24.4244 N.3     1  UNL1       -0.2725
      2 C          -7.4161  -15.7408   25.8254 C.3     1  UNL1        0.0722
      3 C          -6.0471  -15.3472   26.2953 C.3     1  UNL1        0.0191
      4 C          -4.8757  -15.4517   25.3642 C.3     1  UNL1        0.0224
      5 C          -5.0734  -15.9498   23.9632 C.3     1  UNL1        0.0878
      6 C          -6.4425  -16.3433   23.4933 C.3     1  UNL1        0.0918
      7 C         -13.0900  -17.8130   22.5447 C.2     1  UNL1        0.4049
      8 O         -13.6078  -17.3034   21.2324 O.2     1  UNL1       -0.2262
      9 N         -11.7210  -17.4194   23.0146 N.am    1  UNL1       -0.2459
     10 C         -11.2032  -17.9290   24.3270 C.3     1  UNL1        0.0981
     11 C          -9.8342  -17.5355   24.7969 C.3     1  UNL1        0.0376
     12 C          -8.9829  -16.6324   23.9545 C.3     1  UNL1        0.0610
     13 C          -9.5007  -16.1228   22.6422 C.3     1  UNL1        0.0376
     14 C         -10.8697  -16.5163   22.1722 C.3     1  UNL1        0.0981
     15 O         -13.9413  -18.7161   23.3871 O.3     1  UNL1       -0.4345
     16 C         -14.4146  -18.5186   25.9341 C.3     1  UNL1        0.0513
     17 C         -14.7456  -18.1481   24.5187 C.3     1  UNL1        0.2102
     18 N          -3.9020  -16.0544   23.0321 N.am    1  UNL1       -0.3011
     19 C          -3.4444  -17.3993   22.5506 C.2     1  UNL1        0.2455
     20 O          -4.1581  -18.6396   23.0003 O.2     1  UNL1       -0.2702
     21 H          -3.4336  -15.2403   22.7370 H       1  UNL1        0.1497
     22 C          -2.2730  -17.5039   21.6195 C.ar    1  UNL1        0.0494
     23 C          -1.4052  -16.3064   21.3686 C.ar    1  UNL1        0.0042
     24 C          -0.2338  -16.4111   20.4374 C.ar    1  UNL1        0.0001
     25 C           0.0697  -17.7131   19.7573 C.ar    1  UNL1       -0.0003
     26 C          -0.7982  -18.9105   20.0082 C.ar    1  UNL1       -0.0041
     27 C          -1.9695  -18.8059   20.9393 C.ar    1  UNL1       -0.0175
     28 C          -2.8374  -20.0033   21.1903 C.3     1  UNL1        0.0312
@<TRIPOS>BOND
     1    16    17    1
     2    17    15    1
     3    15     7    1
     4     7     8    2
     5     7     9   am
     6     9    10    1
     7    10    11    1
     8    11    12    1
     9    12     1    1
    10     1     2    1
    11     2     3    1
    12     3     4    1
    13     4     5    1
    14     5    18    1
    15    18    19   am
    16    19    20    2
    17    19    22    1
    18    22    23   ar
    19    23    24   ar
    20    24    25   ar
    21    25    26   ar
    22    26    27   ar
    23    27    28    1
    24     5     6    1
    25    12    13    1
    26    13    14    1
    27    14     9    1
    28     6     1    1
    29    27    22   ar
    30    18    21    1
@<TRIPOS>MOLECULE
*****
 28 30 0 0 0
SMALL
GASTEIGER

@<TRIPOS>ATOM
      1 N           7.6593   -4.7326   24.0697 N.3     1  UNL1       -0.2725
      2 C           8.6037   -5.7175   23.4469 C.3     1  UNL1        0.0722
      3 C           8.8274   -5.7073   21.9637 C.3     1  UNL1        0.0191
      4 C           8.1067   -4.7122   21.1033 C.3     1  UNL1        0.0224
      5 C           7.1622   -3.7274   21.7261 C.3     1  UNL1        0.0878
      6 C           6.9385   -3.7376   23.2093 C.3     1  UNL1        0.0918
      7 C           6.7645   -4.7734   30.0025 C.2     1  UNL1        0.4049
      8 O           6.7872   -6.0705   30.7555 O.2     1  UNL1       -0.2262
      9 N           6.9882   -4.7632   28.5193 N.am    1  UNL1       -0.2459
     10 C           6.9655   -3.4662   27.7663 C.3     1  UNL1        0.0981
     11 C           7.1892   -3.4560   26.2831 C.3     1  UNL1        0.0376
     12 C           7.4356   -4.7428   25.5529 C.3     1  UNL1        0.0610
     13 C           7.4583   -6.0399   26.3059 C.3     1  UNL1        0.0376
     14 C           7.2346   -6.0501   27.7891 C.3     1  UNL1        0.0981
     15 O           6.5181   -3.4866   30.7326 O.3     1  UNL1       -0.4345
     16 C           5.2107   -2.7112   32.8397 C.3     1  UNL1        0.0513
     17 C           6.3318   -3.4925   32.2210 C.3     1  UNL1        0.2102
     18 N           6.4414   -2.7322   20.8658 N.am    1  UNL1       -0.3011
     19 C           5.0764   -3.0518   20.3322 C.2     1  UNL1        0.2455
     20 O           4.4322   -4.3665   20.6590 O.2     1  UNL1       -0.2702
     21 H           6.8642   -1.8694   20.6513 H       1  UNL1        0.1497
     22 C           4.3556   -2.0567   19.4718 C.ar    1  UNL1        0.0494
     23 C           4.6404   -1.9919   18.0006 C.ar    1  UNL1        0.0042
     24 C           3.9195   -0.9968   17.1402 C.ar    1  UNL1        0.0001
     25 C           2.9139   -0.0665   17.7512 C.ar    1  UNL1       -0.0003
     26 C           2.6290   -0.1313   19.2225 C.ar    1  UNL1       -0.0041
     27 C           3.3499   -1.1264   20.0828 C.ar    1  UNL1       -0.0175
     28 C           3.0651   -1.1912   21.5541 C.3     1  UNL1        0.0312
@<TRIPOS>BOND
     1    16    17    1
     2    17    15    1
     3    15     7    1
     4     7     8    2
     5     7     9   am
     6     9    10    1
     7    10    11    1
     8    11    12    1
     9    12     1    1
    10     1     2    1
    11     2     3    1
    12     3     4    1
    13     4     5    1
    14     5    18    1
    15    18    19   am
    16    19    20    2
    17    19    22    1
    18    22    23   ar
    19    23    24   ar
    20    24    25   ar
    21    25    26   ar
    22    26    27   ar
    23    27    28    1
    24     5     6    1
    25    12    13    1
    26    13    14    1
    27    14     9    1
    28     6     1    1
    29    27    22   ar
    30    18    21    1
@<TRIPOS>MOLECULE
*****
 28 30 0 0 0
SMALL
GASTEIGER

@<TRIPOS>ATOM
      1 N           6.8930   -3.9917   24.2538 N.3     1  UNL1       -0.2725
      2 C           7.8392   -4.8142   23.4304 C.3     1  UNL1        0.0722
      3 C           7.8745   -4.6494   21.9399 C.3     1  UNL1        0.0191
      4 C           6.9634   -3.6621   21.2727 C.3     1  UNL1        0.0224
      5 C           6.0172   -2.8396   22.0961 C.3     1  UNL1        0.0878
      6 C           5.9820   -3.0044   23.5866 C.3     1  UNL1        0.0918
      7 C           6.7522   -4.6510   30.2158 C.2     1  UNL1        0.4049
      8 O           6.7738   -6.0240   30.8192 O.2     1  UNL1       -0.2262
      9 N           6.7874   -4.4861   28.7253 N.am    1  UNL1       -0.2459
     10 C           6.7658   -3.1131   28.1218 C.3     1  UNL1        0.0981
     11 C           6.8010   -2.9483   26.6313 C.3     1  UNL1        0.0376
     12 C           6.8578   -4.1565   25.7443 C.3     1  UNL1        0.0610
     13 C           6.8794   -5.5296   26.3477 C.3     1  UNL1        0.0376
     14 C           6.8442   -5.6944   27.8382 C.3     1  UNL1        0.0981
     15 O           6.6954   -3.4427   31.1028 O.3     1  UNL1       -0.4345
     16 C           5.0253   -2.5371   32.8750 C.3     1  UNL1        0.0513
     17 C           6.0630   -3.5375   32.4597 C.3     1  UNL1        0.2102
     18 N           5.1061   -1.8521   21.4290 N.am    1  UNL1       -0.3011
     19 C           4.0268   -2.3330   20.5049 C.2     1  UNL1        0.2455
     20 O           3.8587   -3.8013   20.2479 O.2     1  UNL1       -0.2702
     21 H           5.2164   -0.8885   21.5977 H       1  UNL1        0.1497
     22 C           3.1157   -1.3457   19.8378 C.ar    1  UNL1        0.0494
     23 C           1.8082   -0.9813   20.4763 C.ar    1  UNL1        0.0042
     24 C           0.8971    0.0060   19.8091 C.ar    1  UNL1        0.0001
     25 C           1.2935    0.6290   18.5035 C.ar    1  UNL1       -0.0003
     26 C           2.6011    0.2647   17.8650 C.ar    1  UNL1       -0.0041
     27 C           3.5121   -0.7226   18.5321 C.ar    1  UNL1       -0.0175
     28 C           4.8196   -1.0869   17.8936 C.3     1  UNL1        0.0312
@<TRIPOS>BOND
     1    16    17    1
     2    17    15    1
     3    15     7    1
     4     7     8    2
     5     7     9   am
     6     9    10    1
     7    10    11    1
     8    11    12    1
     9    12     1    1
    10     1     2    1
    11     2     3    1
    12     3     4    1
    13     4     5    1
    14     5    18    1
    15    18    19   am
    16    19    20    2
    17    19    22    1
    18    22    23   ar
    19    23    24   ar
    20    24    25   ar
    21    25    26   ar
    22    26    27   ar
    23    27    28    1
    24     5     6    1
    25    12    13    1
    26    13    14    1
    27    14     9    1
    28     6     1    1
    29    27    22   ar
    30    18    21    1
@<TRIPOS>MOLECULE
*****
 28 30 0 0 0
SMALL
GASTEIGER

@<TRIPOS>ATOM
      1 N           0.5212    1.7077   19.2428 N.3     1  UNL1       -0.2725
      2 C           0.3589    2.6923   18.1229 C.3     1  UNL1        0.0722
      3 C          -0.6590    3.7888   18.2298 C.3     1  UNL1        0.0191
      4 C          -1.5147    3.9007   19.4567 C.3     1  UNL1        0.0224
      5 C          -1.3524    2.9161   20.5766 C.3     1  UNL1        0.0878
      6 C          -0.3345    1.8196   20.4696 C.3     1  UNL1        0.0918
      7 C           4.5930   -2.6784   18.8149 C.2     1  UNL1        0.4049
      8 O           5.6322   -2.6341   17.7341 O.2     1  UNL1       -0.2262
      9 N           3.5751   -1.5819   18.9218 N.am    1  UNL1       -0.2459
     10 C           2.5358   -1.6261   20.0025 C.3     1  UNL1        0.0981
     11 C           1.5179   -0.5296   20.1095 C.3     1  UNL1        0.0376
     12 C           1.5392    0.6112   19.1358 C.3     1  UNL1        0.0610
     13 C           2.5784    0.6554   18.0551 C.3     1  UNL1        0.0376
     14 C           3.5963   -0.4411   17.9481 C.3     1  UNL1        0.0981
     15 O           4.5717   -3.8191   19.7886 O.3     1  UNL1       -0.4345
     16 C           4.6324   -3.6116   22.3777 C.3     1  UNL1        0.0513
     17 C           5.3518   -3.7289   21.0666 C.3     1  UNL1        0.2102
     18 N          -2.2081    3.0280   21.8035 N.am    1  UNL1       -0.3011
     19 C          -1.8243    3.9750   22.9017 C.2     1  UNL1        0.2455
     20 O          -0.5849    4.8100   22.7730 O.2     1  UNL1       -0.2702
     21 H          -3.0216    2.4799   21.8880 H       1  UNL1        0.1497
     22 C          -2.6800    4.0869   24.1286 C.ar    1  UNL1        0.0494
     23 C          -3.9338    4.9096   24.0961 C.ar    1  UNL1        0.0042
     24 C          -4.7894    5.0215   25.3231 C.ar    1  UNL1        0.0001
     25 C          -4.3912    4.3107   26.5825 C.ar    1  UNL1       -0.0003
     26 C          -3.1374    3.4879   26.6150 C.ar    1  UNL1       -0.0041
     27 C          -2.2818    3.3760   25.3881 C.ar    1  UNL1       -0.0175
     28 C          -1.0280    2.5533   25.4206 C.3     1  UNL1        0.0312
@<TRIPOS>BOND
     1    16    17    1
     2    17    15    1
     3    15     7    1
     4     7     8    2
     5     7     9   am
     6     9    10    1
     7    10    11    1
     8    11    12    1
     9    12     1    1
    10     1     2    1
    11     2     3    1
    12     3     4    1
    13     4     5    1
    14     5    18    1
    15    18    19   am
    16    19    20    2
    17    19    22    1
    18    22    23   ar
    19    23    24   ar
    20    24    25   ar
    21    25    26   ar
    22    26    27   ar
    23    27    28    1
    24     5     6    1
    25    12    13    1
    26    13    14    1
    27    14     9    1
    28     6     1    1
    29    27    22   ar
    30    18    21    1
@<TRIPOS>MOLECULE
*****
 28 30 0 0 0
SMALL
GASTEIGER

@<TRIPOS>ATOM
      1 N           0.0625    2.3923   19.2602 N.3     1  UNL1       -0.2725
      2 C          -0.2869    3.1308   18.0023 C.3     1  UNL1        0.0722
      3 C          -1.2807    4.2537   18.0432 C.3     1  UNL1        0.0191
      4 C          -1.9250    4.6380   19.3421 C.3     1  UNL1        0.0224
      5 C          -1.5756    3.8994   20.6000 C.3     1  UNL1        0.0878
      6 C          -0.5818    2.7766   20.5591 C.3     1  UNL1        0.0918
      7 C           4.0375   -2.0991   19.0965 C.2     1  UNL1        0.4049
      8 O           5.2388   -2.0052   18.2032 O.2     1  UNL1       -0.2262
      9 N           3.0438   -0.9762   19.1374 N.am    1  UNL1       -0.2459
     10 C           1.8424   -1.0701   20.0307 C.3     1  UNL1        0.0981
     11 C           0.8487    0.0527   20.0716 C.3     1  UNL1        0.0376
     12 C           1.0563    1.2694   19.2193 C.3     1  UNL1        0.0610
     13 C           2.2576    1.3633   18.3260 C.3     1  UNL1        0.0376
     14 C           3.2513    0.2405   18.2851 C.3     1  UNL1        0.0981
     15 O           3.8299   -3.3158   19.9488 O.3     1  UNL1       -0.4345
     16 C           4.5849   -5.4527   18.6784 C.3     1  UNL1        0.0513
     17 C           3.4995   -4.6319   19.3095 C.3     1  UNL1        0.2102
     18 N          -2.2199    4.2837   21.8990 N.am    1  UNL1       -0.3011
     19 C          -3.5338    3.6767   22.2929 C.2     1  UNL1        0.2455
     20 O          -4.2034    2.6854   21.3878 O.2     1  UNL1       -0.2702
     21 H          -1.7805    4.9344   22.4930 H       1  UNL1        0.1497
     22 C          -4.1782    4.0610   23.5918 C.ar    1  UNL1        0.0494
     23 C          -3.5236    3.6951   24.8909 C.ar    1  UNL1        0.0042
     24 C          -4.1680    4.0794   26.1898 C.ar    1  UNL1        0.0001
     25 C          -5.4669    4.8295   26.1896 C.ar    1  UNL1       -0.0003
     26 C          -6.1215    5.1954   24.8905 C.ar    1  UNL1       -0.0041
     27 C          -5.4772    4.8112   23.5916 C.ar    1  UNL1       -0.0175
     28 C          -6.1317    5.1771   22.2925 C.3     1  UNL1        0.0312
@<TRIPOS>BOND
     1    16    17    1
     2    17    15    1
     3    15     7    1
     4     7     8    2
     5     7     9   am
     6     9    10    1
     7    10    11    1
     8    11    12    1
     9    12     1    1
    10     1     2    1
    11     2     3    1
    12     3     4    1
    13     4     5    1
    14     5    18    1
    15    18    19   am
    16    19    20    2
    17    19    22    1
    18    22    23   ar
    19    23    24   ar
    20    24    25   ar
    21    25    26   ar
    22    26    27   ar
    23    27    28    1
    24     5     6    1
    25    12    13    1
    26    13    14    1
    27    14     9    1
    28     6     1    1
    29    27    22   ar
    30    18    21    1
@<TRIPOS>MOLECULE
*****
 28 30 0 0 0
SMALL
GASTEIGER

@<TRIPOS>ATOM
      1 N          -5.6549  -16.5022   24.1424 N.3     1  UNL1       -0.2725
      2 C          -5.2847  -15.6526   25.3218 C.3     1  UNL1        0.0722
      3 C          -6.3571  -14.9925   26.1367 C.3     1  UNL1        0.0191
      4 C          -7.7997  -15.1819   25.7723 C.3     1  UNL1        0.0224
      5 C          -8.1699  -16.0316   24.5929 C.3     1  UNL1        0.0878
      6 C          -7.0975  -16.6917   23.7779 C.3     1  UNL1        0.0918
      7 C          -1.3652  -19.1427   20.8826 C.2     1  UNL1        0.4049
      8 O          -1.4536  -20.6076   20.5724 O.2     1  UNL1       -0.2262
      9 N          -2.4376  -18.4826   21.6975 N.am    1  UNL1       -0.2459
     10 C          -2.3492  -17.0177   22.0077 C.3     1  UNL1        0.0981
     11 C          -3.4217  -16.3576   22.8226 C.3     1  UNL1        0.0376
     12 C          -4.5825  -17.1623   23.3274 C.3     1  UNL1        0.0610
     13 C          -4.6708  -18.6272   23.0173 C.3     1  UNL1        0.0376
     14 C          -3.5984  -19.2874   22.2023 C.3     1  UNL1        0.0981
     15 O          -0.2044  -18.3380   20.3778 O.3     1  UNL1       -0.4345
     16 C          -1.6020  -17.6194   18.3089 C.3     1  UNL1        0.0513
     17 C          -0.3271  -17.5661   19.0975 C.3     1  UNL1        0.2102
     18 N          -9.6126  -16.2211   24.2283 N.am    1  UNL1       -0.3011
     19 C         -10.1362  -17.5944   23.9284 C.2     1  UNL1        0.2455
     20 O          -9.2171  -18.7781   23.9931 O.2     1  UNL1       -0.2702
     21 H         -10.2158  -15.4442   24.1859 H       1  UNL1        0.1497
     22 C         -11.5788  -17.7839   23.5639 C.ar    1  UNL1        0.0494
     23 C         -12.5758  -18.1609   24.6194 C.ar    1  UNL1        0.0042
     24 C         -14.0185  -18.3504   24.2548 C.ar    1  UNL1        0.0001
     25 C         -14.4641  -18.1631   22.8349 C.ar    1  UNL1       -0.0003
     26 C         -13.4671  -17.7861   21.7794 C.ar    1  UNL1       -0.0041
     27 C         -12.0245  -17.5966   22.1439 C.ar    1  UNL1       -0.0175
     28 C         -11.0275  -17.2196   21.0885 C.3     1  UNL1        0.0312
@<TRIPOS>BOND
     1    16    17    1
     2    17    15    1
     3    15     7    1
     4     7     8    2
     5     7     9   am
     6     9    10    1
     7    10    11    1
     8    11    12    1
     9    12     1    1
    10     1     2    1
    11     2     3    1
    12     3     4    1
    13     4     5    1
    14     5    18    1
    15    18    19   am
    16    19    20    2
    17    19    22    1
    18    22    23   ar
    19    23    24   ar
    20    24    25   ar
    21    25    26   ar
    22    26    27   ar
    23    27    28    1
    24     5     6    1
    25    12    13    1
    26    13    14    1
    27    14     9    1
    28     6     1    1
    29    27    22   ar
    30    18    21    1
@<TRIPOS>MOLECULE
*****
 28 30 0 0 0
SMALL
GASTEIGER

@<TRIPOS>ATOM
      1 N           0.4187    1.7918   19.2677 N.3     1  UNL1       -0.2725
      2 C           0.2531    2.7741   18.1463 C.3     1  UNL1        0.0722
      3 C          -0.7692    3.8668   18.2512 C.3     1  UNL1        0.0191
      4 C          -1.6259    3.9771   19.4775 C.3     1  UNL1        0.0224
      5 C          -1.4603    2.9947   20.5989 C.3     1  UNL1        0.0878
      6 C          -0.4380    1.9021   20.4940 C.3     1  UNL1        0.0918
      7 C           4.5079   -2.5788   18.8481 C.2     1  UNL1        0.4049
      8 O           4.4696   -3.7359   19.8018 O.2     1  UNL1       -0.2262
      9 N           3.4856   -1.4862   18.9530 N.am    1  UNL1       -0.2459
     10 C           3.5240   -0.3291   17.9993 C.3     1  UNL1        0.0981
     11 C           2.5017    0.7636   18.1042 C.3     1  UNL1        0.0376
     12 C           1.4410    0.6991   19.1628 C.3     1  UNL1        0.0610
     13 C           1.4026   -0.4580   20.1165 C.3     1  UNL1        0.0376
     14 C           2.4249   -1.5506   20.0116 C.3     1  UNL1        0.0981
     15 O           5.5686   -2.5144   17.7894 O.3     1  UNL1       -0.4345
     16 C           7.9211   -2.3231   18.8755 C.3     1  UNL1        0.0513
     17 C           6.8267   -1.7352   18.0347 C.3     1  UNL1        0.2102
     18 N          -2.3170    3.1050   21.8253 N.am    1  UNL1       -0.3011
     19 C          -1.9428    4.0621   22.9180 C.2     1  UNL1        0.2455
     20 O          -0.7118    4.9088   22.7843 O.2     1  UNL1       -0.2702
     21 H          -3.1249    2.5493   21.9130 H       1  UNL1        0.1497
     22 C          -2.7994    4.1724   24.1444 C.ar    1  UNL1        0.0494
     23 C          -4.0410    5.0137   24.1187 C.ar    1  UNL1        0.0042
     24 C          -4.8977    5.1240   25.3452 C.ar    1  UNL1        0.0001
     25 C          -4.5127    4.3930   26.5971 C.ar    1  UNL1       -0.0003
     26 C          -3.2711    3.5517   26.6227 C.ar    1  UNL1       -0.0041
     27 C          -2.4145    3.4414   25.3964 C.ar    1  UNL1       -0.0175
     28 C          -1.1728    2.6001   25.4220 C.3     1  UNL1        0.0312
@<TRIPOS>BOND
     1    16    17    1
     2    17    15    1
     3    15     7    1
     4     7     8    2
     5     7     9   am
     6     9    10    1
     7    10    11    1
     8    11    12    1
     9    12     1    1
    10     1     2    1
    11     2     3    1
    12     3     4    1
    13     4     5    1
    14     5    18    1
    15    18    19   am
    16    19    20    2
    17    19    22    1
    18    22    23   ar
    19    23    24   ar
    20    24    25   ar
    21    25    26   ar
    22    26    27   ar
    23    27    28    1
    24     5     6    1
    25    12    13    1
    26    13    14    1
    27    14     9    1
    28     6     1    1
    29    27    22   ar
    30    18    21    1
@<TRIPOS>MOLECULE
*****
 28 30 0 0 0
SMALL
GASTEIGER

@<TRIPOS>ATOM
      1 N           7.1144   -4.7720   23.7287 N.3     1  UNL1       -0.2725
      2 C           8.0704   -5.9258   23.7972 C.3     1  UNL1        0.0722
      3 C           8.4155   -6.5362   25.1233 C.3     1  UNL1        0.0191
      4 C           7.8047   -5.9927   26.3808 C.3     1  UNL1        0.0224
      5 C           6.8487   -4.8389   26.3123 C.3     1  UNL1        0.0878
      6 C           6.5035   -4.2285   24.9863 C.3     1  UNL1        0.0918
      7 C           5.7339   -2.3305   18.4246 C.2     1  UNL1        0.4049
      8 O           6.8192   -2.0187   17.4373 O.2     1  UNL1       -0.2262
      9 N           6.0790   -2.9409   19.7507 N.am    1  UNL1       -0.2459
     10 C           4.9938   -3.2527   20.7380 C.3     1  UNL1        0.0981
     11 C           5.3389   -3.8630   22.0640 C.3     1  UNL1        0.0376
     12 C           6.7693   -4.1616   22.4027 C.3     1  UNL1        0.0610
     13 C           7.8546   -3.8498   21.4154 C.3     1  UNL1        0.0376
     14 C           7.5094   -3.2394   20.0893 C.3     1  UNL1        0.0981
     15 O           4.3035   -2.0320   18.0859 O.3     1  UNL1       -0.4345
     16 C           3.1184    0.2703   17.8735 C.3     1  UNL1        0.0513
     17 C           3.9625   -0.8163   17.2761 C.3     1  UNL1        0.2102
     18 N           6.2378   -4.2953   27.5699 N.am    1  UNL1       -0.3011
     19 C           7.0519   -3.4308   28.4863 C.2     1  UNL1        0.2455
     20 O           8.4769   -3.1098   28.1451 O.2     1  UNL1       -0.2702
     21 H           5.3025   -4.5060   27.7938 H       1  UNL1        0.1497
     22 C           6.4410   -2.8873   29.7438 C.ar    1  UNL1        0.0494
     23 C           5.7418   -1.5604   29.7253 C.ar    1  UNL1        0.0042
     24 C           5.1309   -1.0169   30.9829 C.ar    1  UNL1        0.0001
     25 C           5.2193   -1.8003   32.2590 C.ar    1  UNL1       -0.0003
     26 C           5.9185   -3.1272   32.2775 C.ar    1  UNL1       -0.0041
     27 C           6.5294   -3.6707   31.0200 C.ar    1  UNL1       -0.0175
     28 C           7.2286   -4.9977   31.0385 C.3     1  UNL1        0.0312
@<TRIPOS>BOND
     1    16    17    1
     2    17    15    1
     3    15     7    1
     4     7     8    2
     5     7     9   am
     6     9    10    1
     7    10    11    1
     8    11    12    1
     9    12     1    1
    10     1     2    1
    11     2     3    1
    12     3     4    1
    13     4     5    1
    14     5    18    1
    15    18    19   am
    16    19    20    2
    17    19    22    1
    18    22    23   ar
    19    23    24   ar
    20    24    25   ar
    21    25    26   ar
    22    26    27   ar
    23    27    28    1
    24     5     6    1
    25    12    13    1
    26    13    14    1
    27    14     9    1
    28     6     1    1
    29    27    22   ar
    30    18    21    1
@<TRIPOS>MOLECULE
*****
 28 30 0 0 0
SMALL
GASTEIGER

@<TRIPOS>ATOM
      1 N           0.2181    1.9995   21.2565 N.3     1  UNL1       -0.2725
      2 C           0.4106    2.0614   22.7428 C.3     1  UNL1        0.0722
      3 C          -0.5288    2.8697   23.5878 C.3     1  UNL1        0.0191
      4 C          -1.6608    3.6162   22.9465 C.3     1  UNL1        0.0224
      5 C          -1.8534    3.5543   21.4603 C.3     1  UNL1        0.0878
      6 C          -0.9139    2.7460   20.6153 C.3     1  UNL1        0.0918
      7 C           3.9758   -1.2340   17.8766 C.2     1  UNL1        0.4049
      8 O           3.9219   -1.1255   16.3815 O.2     1  UNL1       -0.2262
      9 N           3.0364   -0.4256   18.7216 N.am    1  UNL1       -0.2459
     10 C           3.0902   -0.5341   20.2166 C.3     1  UNL1        0.0981
     11 C           2.1508    0.2742   21.0616 C.3     1  UNL1        0.0376
     12 C           1.1575    1.1911   20.4116 C.3     1  UNL1        0.0610
     13 C           1.1036    1.2996   18.9165 C.3     1  UNL1        0.0376
     14 C           2.0431    0.4913   18.0715 C.3     1  UNL1        0.0981
     15 O           4.9691   -2.1509   18.5267 O.3     1  UNL1       -0.4345
     16 C           3.6047   -4.2645   19.1757 C.3     1  UNL1        0.0513
     17 C           4.7688   -3.6363   18.4683 C.3     1  UNL1        0.2102
     18 N          -2.9854    4.3008   20.8189 N.am    1  UNL1       -0.3011
     19 C          -4.3753    3.7386   20.8638 C.2     1  UNL1        0.2455
     20 O          -4.6332    2.4299   21.5500 O.2     1  UNL1       -0.2702
     21 H          -2.8162    5.1598   20.3685 H       1  UNL1        0.1497
     22 C          -5.5074    4.4850   20.2224 C.ar    1  UNL1        0.0494
     23 C          -6.4580    5.2782   21.0694 C.ar    1  UNL1        0.0042
     24 C          -7.5900    6.0247   20.4280 C.ar    1  UNL1        0.0001
     25 C          -7.7715    5.9779   18.9398 C.ar    1  UNL1       -0.0003
     26 C          -6.8209    5.1847   18.0928 C.ar    1  UNL1       -0.0041
     27 C          -5.6889    4.4383   18.7342 C.ar    1  UNL1       -0.0175
     28 C          -4.7383    3.6451   17.8872 C.3     1  UNL1        0.0312
@<TRIPOS>BOND
     1    16    17    1
     2    17    15    1
     3    15     7    1
     4     7     8    2
     5     7     9   am
     6     9    10    1
     7    10    11    1
     8    11    12    1
     9    12     1    1
    10     1     2    1
    11     2     3    1
    12     3     4    1
    13     4     5    1
    14     5    18    1
    15    18    19   am
    16    19    20    2
    17    19    22    1
    18    22    23   ar
    19    23    24   ar
    20    24    25   ar
    21    25    26   ar
    22    26    27   ar
    23    27    28    1
    24     5     6    1
    25    12    13    1
    26    13    14    1
    27    14     9    1
    28     6     1    1
    29    27    22   ar
    30    18    21    1
