@<TRIPOS>MOLECULE
*****
 29 31 0 0 0
SMALL
GASTEIGER

@<TRIPOS>ATOM
      1 C          -4.8478  -16.7402   23.6544 C.2     1  UNL1        0.2548
      2 O          -4.3347  -15.8123   24.7154 O.2     1  UNL1       -0.2694
      3 N          -6.3247  -16.9367   23.4801 N.am    1  UNL1       -0.2757
      4 C          -7.2884  -16.2052   24.3668 C.3     1  UNL1        0.0941
      5 C          -8.7652  -16.4017   24.1925 C.3     1  UNL1        0.0259
      6 C          -9.2783  -17.3296   23.1315 C.3     1  UNL1        0.0257
      7 C          -8.3146  -18.0611   22.2448 C.3     1  UNL1        0.0259
      8 C          -6.8378  -17.8646   22.4191 C.3     1  UNL1        0.0941
      9 C          -2.7670  -19.2387   21.5347 C.ar    1  UNL1        0.1747
     10 S          -3.9097  -18.9394   22.4592 S.2     1  UNL1       -0.0459
     11 C          -3.8841  -17.4717   22.7677 C.ar    1  UNL1        0.0824
     12 C          -2.7256  -16.8639   22.0339 C.ar    1  UNL1       -0.0017
     13 C          -2.3275  -15.4179   22.0579 C.3     1  UNL1        0.0323
     14 C          -2.0352  -17.9559   21.2718 C.ar    1  UNL1        0.0716
     15 BR         -0.8254  -17.7938   20.4000 Br      1  UNL1       -0.0456
     16 O          -2.4175  -20.5845   20.9719 O.3     1  UNL1       -0.4692
     17 C          -3.2598  -21.1849   19.8856 C.3     1  UNL1        0.2061
     18 C          -5.8336  -21.1818   20.2395 C.3     1  UNL1        0.0040
     19 C          -4.6122  -20.6116   19.5816 C.3     1  UNL1        0.0474
     20 C         -10.7552  -17.5261   22.9572 C.ar    1  UNL1       -0.0227
     21 C         -11.3904  -17.2904   21.6190 C.ar    1  UNL1       -0.0043
     22 C         -12.8672  -17.4868   21.4447 C.ar    1  UNL1       -0.0006
     23 C         -13.7089  -17.9190   22.6087 C.ar    1  UNL1       -0.0030
     24 C         -13.0736  -18.1547   23.9470 C.ar    1  UNL1       -0.0069
     25 C         -11.5968  -17.9583   24.1212 C.ar    1  UNL1       -0.0072
     26 C         -13.9152  -18.5869   25.1110 C.3     1  UNL1        0.0922
     27 N         -15.4088  -18.6330   24.9804 N.3     1  UNL1       -0.3175
     28 H         -15.7683  -17.6872   24.8517 H       1  UNL1        0.1192
     29 H         -15.8117  -19.0378   25.8256 H       1  UNL1        0.1192
@<TRIPOS>BOND
     1    18    19    1
     2    19    17    1
     3    17    16    1
     4    16     9    1
     5     9    10   ar
     6    10    11   ar
     7    11     1    1
     8     1     2    2
     9     1     3   am
    10     3     4    1
    11     4     5    1
    12     5     6    1
    13     6    20    1
    14    20    21   ar
    15    21    22   ar
    16    22    23   ar
    17    23    24   ar
    18    24    26    1
    19    26    27    1
    20    24    25   ar
    21     6     7    1
    22     7     8    1
    23    11    12   ar
    24    12    13    1
    25    12    14   ar
    26    14    15    1
    27    14     9   ar
    28     8     3    1
    29    25    20   ar
    30    27    28    1
    31    27    29    1
@<TRIPOS>MOLECULE
*****
 29 31 0 0 0
SMALL
GASTEIGER

@<TRIPOS>ATOM
      1 C           0.0979    3.8086   20.1051 C.2     1  UNL1        0.2548
      2 O           0.7957    5.1238   20.2879 O.2     1  UNL1       -0.2694
      3 N           0.8463    2.5264   20.3192 N.am    1  UNL1       -0.2757
      4 C           2.2924    2.5593   20.7162 C.3     1  UNL1        0.0941
      5 C           3.0407    1.2771   20.9303 C.3     1  UNL1        0.0259
      6 C           2.3429   -0.0381   20.7475 C.3     1  UNL1        0.0257
      7 C           0.8967   -0.0710   20.3506 C.3     1  UNL1        0.0259
      8 C           0.1484    1.2112   20.1364 C.3     1  UNL1        0.0941
      9 C          -3.7684    3.6275   19.8150 C.ar    1  UNL1        0.1747
     10 S          -2.5134    3.5986   20.6361 S.2     1  UNL1       -0.0459
     11 C          -1.3483    3.7757   19.7081 C.ar    1  UNL1        0.0824
     12 C          -1.8832    3.9141   18.3136 C.ar    1  UNL1       -0.0017
     13 C          -1.0658    4.1097   17.0711 C.3     1  UNL1        0.0323
     14 C          -3.3789    3.8225   18.3796 C.ar    1  UNL1        0.0716
     15 BR         -4.3199    3.9105   17.2148 Br      1  UNL1       -0.0456
     16 O          -5.1673    3.4863   20.3376 O.3     1  UNL1       -0.4692
     17 C          -5.6446    4.3700   21.4517 C.3     1  UNL1        0.2061
     18 C          -4.8470    3.1714   23.6143 C.3     1  UNL1        0.0040
     19 C          -5.9473    3.7823   22.7982 C.3     1  UNL1        0.0474
     20 C           3.0912   -1.3203   20.9617 C.ar    1  UNL1       -0.0227
     21 C           3.6077   -1.6683   22.3262 C.ar    1  UNL1       -0.0043
     22 C           4.3561   -2.9506   22.5404 C.ar    1  UNL1       -0.0006
     23 C           4.5880   -3.8848   21.3899 C.ar    1  UNL1       -0.0030
     24 C           4.0714   -3.5367   20.0253 C.ar    1  UNL1       -0.0069
     25 C           3.3231   -2.2545   19.8112 C.ar    1  UNL1       -0.0072
     26 C           4.3033   -4.4709   18.8749 C.3     1  UNL1        0.0922
     27 N           4.7514   -5.8794   19.1310 N.3     1  UNL1       -0.3175
     28 H           5.6881   -5.8700   19.5347 H       1  UNL1        0.1192
     29 H           4.7651   -6.3969   18.2522 H       1  UNL1        0.1192
@<TRIPOS>BOND
     1    18    19    1
     2    19    17    1
     3    17    16    1
     4    16     9    1
     5     9    10   ar
     6    10    11   ar
     7    11     1    1
     8     1     2    2
     9     1     3   am
    10     3     4    1
    11     4     5    1
    12     5     6    1
    13     6    20    1
    14    20    21   ar
    15    21    22   ar
    16    22    23   ar
    17    23    24   ar
    18    24    26    1
    19    26    27    1
    20    24    25   ar
    21     6     7    1
    22     7     8    1
    23    11    12   ar
    24    12    13    1
    25    12    14   ar
    26    14    15    1
    27    14     9   ar
    28     8     3    1
    29    25    20   ar
    30    27    28    1
    31    27    29    1
@<TRIPOS>MOLECULE
*****
 29 31 0 0 0
SMALL
GASTEIGER

@<TRIPOS>ATOM
      1 C           4.8255   -1.0533   27.2440 C.2     1  UNL1        0.2548
      2 O           5.9739   -1.5695   28.0593 O.2     1  UNL1       -0.2694
      3 N           4.6920   -1.4473   25.8028 N.am    1  UNL1       -0.2757
      4 C           5.7069   -2.3574   25.1770 C.3     1  UNL1        0.0941
      5 C           5.5733   -2.7513   23.7358 C.3     1  UNL1        0.0259
      6 C           4.4250   -2.2350   22.9205 C.3     1  UNL1        0.0257
      7 C           3.4101   -1.3249   23.5463 C.3     1  UNL1        0.0259
      8 C           3.5437   -0.9310   24.9875 C.3     1  UNL1        0.0941
      9 C           1.8708    0.6613   29.0864 C.ar    1  UNL1        0.1747
     10 S           2.6023   -0.5726   28.6479 S.2     1  UNL1       -0.0459
     11 C           3.8107   -0.1432   27.8699 C.ar    1  UNL1        0.0824
     12 C           3.8260    1.3562   27.8276 C.ar    1  UNL1       -0.0017
     13 C           4.8590    2.2086   27.1520 C.3     1  UNL1        0.0323
     14 C           2.6271    1.8534   28.5795 C.ar    1  UNL1        0.0716
     15 BR          2.2506    3.2903   28.7878 Br      1  UNL1       -0.0456
     16 O           0.6051    0.6970   29.8908 O.3     1  UNL1       -0.4692
     17 C          -0.7249    0.6713   29.1978 C.3     1  UNL1        0.2061
     18 C          -1.1017    2.2723   27.1866 C.3     1  UNL1        0.0040
     19 C          -0.8041    0.9014   27.7176 C.3     1  UNL1        0.0474
     20 C           4.2915   -2.6290   21.4793 C.ar    1  UNL1       -0.0227
     21 C           4.3099   -4.0783   21.0931 C.ar    1  UNL1       -0.0043
     22 C           4.1764   -4.4722   19.6519 C.ar    1  UNL1       -0.0006
     23 C           4.0245   -3.4168   18.5969 C.ar    1  UNL1       -0.0030
     24 C           4.0061   -1.9674   18.9831 C.ar    1  UNL1       -0.0069
     25 C           4.1395   -1.5736   20.4243 C.ar    1  UNL1       -0.0072
     26 C           3.8541   -0.9120   17.9281 C.3     1  UNL1        0.0922
     27 N           3.8274   -1.2985   16.4790 N.3     1  UNL1       -0.3175
     28 H           4.7356   -1.6778   16.2114 H       1  UNL1        0.1192
     29 H           3.6218   -0.4763   15.9115 H       1  UNL1        0.1192
@<TRIPOS>BOND
     1    18    19    1
     2    19    17    1
     3    17    16    1
     4    16     9    1
     5     9    10   ar
     6    10    11   ar
     7    11     1    1
     8     1     2    2
     9     1     3   am
    10     3     4    1
    11     4     5    1
    12     5     6    1
    13     6    20    1
    14    20    21   ar
    15    21    22   ar
    16    22    23   ar
    17    23    24   ar
    18    24    26    1
    19    26    27    1
    20    24    25   ar
    21     6     7    1
    22     7     8    1
    23    11    12   ar
    24    12    13    1
    25    12    14   ar
    26    14    15    1
    27    14     9   ar
    28     8     3    1
    29    25    20   ar
    30    27    28    1
    31    27    29    1
@<TRIPOS>MOLECULE
*****
 29 31 0 0 0
SMALL
GASTEIGER

@<TRIPOS>ATOM
      1 C           1.4220    2.1114   19.0107 C.2     1  UNL1        0.2548
      2 O           0.5348    2.8339   18.0407 O.2     1  UNL1       -0.2694
      3 N           1.0663    2.0734   20.4675 N.am    1  UNL1       -0.2757
      4 C          -0.1764    2.7579   20.9542 C.3     1  UNL1        0.0941
      5 C          -0.5320    2.7199   22.4109 C.3     1  UNL1        0.0259
      6 C           0.3552    1.9974   23.3809 C.3     1  UNL1        0.0257
      7 C           1.5979    1.3129   22.8942 C.3     1  UNL1        0.0259
      8 C           1.9535    1.3509   21.4375 C.3     1  UNL1        0.0941
      9 C           4.1910   -0.2629   17.6840 C.ar    1  UNL1        0.1747
     10 S           2.7704   -0.0053   18.0907 S.2     1  UNL1       -0.0459
     11 C           2.6647    1.4269   18.5240 C.ar    1  UNL1        0.0824
     12 C           4.0201    2.0544   18.3851 C.ar    1  UNL1       -0.0017
     13 C           4.3707    3.4765   18.7085 C.3     1  UNL1        0.0323
     14 C           4.9634    1.0100   17.8660 C.ar    1  UNL1        0.0716
     15 BR          6.4228    1.2044   17.5791 Br      1  UNL1       -0.0456
     16 O           4.7425   -1.5650   17.1833 O.3     1  UNL1       -0.4692
     17 C           5.2606   -2.5833   18.1552 C.3     1  UNL1        0.2061
     18 C           4.5052   -4.9616   18.8784 C.3     1  UNL1        0.0040
     19 C           4.3034   -3.4753   18.8886 C.3     1  UNL1        0.0474
     20 C          -0.0005    1.9595   24.8377 C.ar    1  UNL1       -0.0227
     21 C          -1.1534    2.7710   25.3497 C.ar    1  UNL1       -0.0043
     22 C          -1.5090    2.7330   26.8064 C.ar    1  UNL1       -0.0006
     23 C          -0.7117    1.8835   27.7512 C.ar    1  UNL1       -0.0030
     24 C           0.4412    1.0719   27.2392 C.ar    1  UNL1       -0.0069
     25 C           0.7968    1.1099   25.7824 C.ar    1  UNL1       -0.0072
     26 C           1.2385    0.2224   28.1839 C.3     1  UNL1        0.0922
     27 N           0.5909   -0.3424   29.4134 N.3     1  UNL1       -0.3175
     28 H           0.3347    0.4183   30.0427 H       1  UNL1        0.1192
     29 H           1.2440   -0.9683   29.8848 H       1  UNL1        0.1192
@<TRIPOS>BOND
     1    18    19    1
     2    19    17    1
     3    17    16    1
     4    16     9    1
     5     9    10   ar
     6    10    11   ar
     7    11     1    1
     8     1     2    2
     9     1     3   am
    10     3     4    1
    11     4     5    1
    12     5     6    1
    13     6    20    1
    14    20    21   ar
    15    21    22   ar
    16    22    23   ar
    17    23    24   ar
    18    24    26    1
    19    26    27    1
    20    24    25   ar
    21     6     7    1
    22     7     8    1
    23    11    12   ar
    24    12    13    1
    25    12    14   ar
    26    14    15    1
    27    14     9   ar
    28     8     3    1
    29    25    20   ar
    30    27    28    1
    31    27    29    1
@<TRIPOS>MOLECULE
*****
 29 31 0 0 0
SMALL
GASTEIGER

@<TRIPOS>ATOM
      1 C          -0.2947    4.1141   19.9603 C.2     1  UNL1        0.2548
      2 O           0.2329    5.5163   20.0333 O.2     1  UNL1       -0.2694
      3 N           0.6388    2.9754   19.6736 N.am    1  UNL1       -0.2757
      4 C           2.0999    3.2391   19.4600 C.3     1  UNL1        0.0941
      5 C           3.0334    2.1005   19.1734 C.3     1  UNL1        0.0259
      6 C           2.5058    0.6983   19.1003 C.3     1  UNL1        0.0257
      7 C           1.0447    0.4346   19.3139 C.3     1  UNL1        0.0259
      8 C           0.1112    1.5732   19.6005 C.3     1  UNL1        0.0941
      9 C          -3.8740    3.3113   21.2290 C.ar    1  UNL1        0.1747
     10 S          -2.4039    3.4797   21.4748 S.2     1  UNL1       -0.0459
     11 C          -1.7558    3.8504   20.1738 C.ar    1  UNL1        0.0824
     12 C          -2.8254    3.9112   19.1239 C.ar    1  UNL1       -0.0017
     13 C          -2.6217    4.2463   17.6761 C.3     1  UNL1        0.0323
     14 C          -4.1345    3.5780   19.7760 C.ar    1  UNL1        0.0716
     15 BR         -5.4697    3.5214   19.0948 Br      1  UNL1       -0.0456
     16 O          -4.9029    2.9413   22.2558 O.3     1  UNL1       -0.4692
     17 C          -4.9435    3.6622   23.5706 C.3     1  UNL1        0.2061
     18 C          -7.3970    4.3795   23.1064 C.3     1  UNL1        0.0040
     19 C          -6.2072    4.3348   24.0186 C.3     1  UNL1        0.0474
     20 C           3.4393   -0.4403   18.8137 C.ar    1  UNL1       -0.0227
     21 C           4.7312   -0.1881   18.0944 C.ar    1  UNL1       -0.0043
     22 C           5.6648   -1.3267   17.8078 C.ar    1  UNL1       -0.0006
     23 C           5.3064   -2.7175   18.2404 C.ar    1  UNL1       -0.0030
     24 C           4.0144   -2.9697   18.9597 C.ar    1  UNL1       -0.0069
     25 C           3.0809   -1.8312   19.2463 C.ar    1  UNL1       -0.0072
     26 C           3.6560   -4.3606   19.3923 C.3     1  UNL1        0.0922
     27 N           4.6200   -5.4877   19.1677 N.3     1  UNL1       -0.3175
     28 H           4.7326   -5.6442   18.1661 H       1  UNL1        0.1192
     29 H           4.2599   -6.3355   19.6059 H       1  UNL1        0.1192
@<TRIPOS>BOND
     1    18    19    1
     2    19    17    1
     3    17    16    1
     4    16     9    1
     5     9    10   ar
     6    10    11   ar
     7    11     1    1
     8     1     2    2
     9     1     3   am
    10     3     4    1
    11     4     5    1
    12     5     6    1
    13     6    20    1
    14    20    21   ar
    15    21    22   ar
    16    22    23   ar
    17    23    24   ar
    18    24    26    1
    19    26    27    1
    20    24    25   ar
    21     6     7    1
    22     7     8    1
    23    11    12   ar
    24    12    13    1
    25    12    14   ar
    26    14    15    1
    27    14     9   ar
    28     8     3    1
    29    25    20   ar
    30    27    28    1
    31    27    29    1
@<TRIPOS>MOLECULE
*****
 29 31 0 0 0
SMALL
GASTEIGER

@<TRIPOS>ATOM
      1 C          -0.6084    3.3376   19.6164 C.2     1  UNL1        0.2548
      2 O          -0.5039    4.4070   18.5697 O.2     1  UNL1       -0.2694
      3 N           0.3474    2.1815   19.6055 N.am    1  UNL1       -0.2757
      4 C           1.4077    2.0950   18.5480 C.3     1  UNL1        0.0941
      5 C           2.3634    0.9390   18.5372 C.3     1  UNL1        0.0259
      6 C           2.2589   -0.1304   19.5838 C.3     1  UNL1        0.0257
      7 C           1.1987   -0.0439   20.6413 C.3     1  UNL1        0.0259
      8 C           0.2429    1.1121   20.6521 C.3     1  UNL1        0.0941
      9 C          -3.8197    3.3625   21.7963 C.ar    1  UNL1        0.1747
     10 S          -3.1323    3.1599   20.4786 S.2     1  UNL1       -0.0459
     11 C          -1.6687    3.4241   20.6738 C.ar    1  UNL1        0.0824
     12 C          -1.4516    3.7902   22.1122 C.ar    1  UNL1       -0.0017
     13 C          -0.1361    4.1339   22.7456 C.3     1  UNL1        0.0323
     14 C          -2.7810    3.7521   22.8060 C.ar    1  UNL1        0.0716
     15 BR         -3.0282    4.0511   24.2549 Br      1  UNL1       -0.0456
     16 O          -5.2881    3.2036   22.0584 O.3     1  UNL1       -0.4692
     17 C          -6.1983    4.3928   21.9729 C.3     1  UNL1        0.2061
     18 C          -6.9774    4.9450   24.3890 C.3     1  UNL1        0.0040
     19 C          -7.3015    4.5666   22.9742 C.3     1  UNL1        0.0474
     20 C           3.2148   -1.2865   19.5729 C.ar    1  UNL1       -0.0227
     21 C           3.8470   -1.7248   18.2853 C.ar    1  UNL1       -0.0043
     22 C           4.8028   -2.8808   18.2744 C.ar    1  UNL1       -0.0006
     23 C           5.1264   -3.5984   19.5512 C.ar    1  UNL1       -0.0030
     24 C           4.4942   -3.1600   20.8389 C.ar    1  UNL1       -0.0069
     25 C           3.5384   -2.0041   20.8498 C.ar    1  UNL1       -0.0072
     26 C           4.8177   -3.8777   22.1158 C.3     1  UNL1        0.0922
     27 N           6.2280   -4.3018   22.4011 N.3     1  UNL1       -0.3175
     28 H           6.5115   -5.0142   21.7283 H       1  UNL1        0.1192
     29 H           6.2837   -4.6843   23.3450 H       1  UNL1        0.1192
@<TRIPOS>BOND
     1    18    19    1
     2    19    17    1
     3    17    16    1
     4    16     9    1
     5     9    10   ar
     6    10    11   ar
     7    11     1    1
     8     1     2    2
     9     1     3   am
    10     3     4    1
    11     4     5    1
    12     5     6    1
    13     6    20    1
    14    20    21   ar
    15    21    22   ar
    16    22    23   ar
    17    23    24   ar
    18    24    26    1
    19    26    27    1
    20    24    25   ar
    21     6     7    1
    22     7     8    1
    23    11    12   ar
    24    12    13    1
    25    12    14   ar
    26    14    15    1
    27    14     9   ar
    28     8     3    1
    29    25    20   ar
    30    27    28    1
    31    27    29    1
@<TRIPOS>MOLECULE
*****
 29 31 0 0 0
SMALL
GASTEIGER

@<TRIPOS>ATOM
      1 C           6.3553   -2.0288   19.6022 C.2     1  UNL1        0.2548
      2 O           7.1837   -1.9565   18.3539 O.2     1  UNL1       -0.2694
      3 N           6.7431   -2.9673   20.7064 N.am    1  UNL1       -0.2757
      4 C           7.9593   -3.8333   20.5620 C.3     1  UNL1        0.0941
      5 C           8.3470   -4.7717   21.6661 C.3     1  UNL1        0.0259
      6 C           7.5186   -4.8441   22.9145 C.3     1  UNL1        0.0257
      7 C           6.3024   -3.9781   23.0588 C.3     1  UNL1        0.0259
      8 C           5.9147   -3.0397   21.9547 C.3     1  UNL1        0.0941
      9 C           3.7063    0.7642   20.0989 C.ar    1  UNL1        0.1747
     10 S           5.1340    0.3078   20.0422 S.2     1  UNL1       -0.0459
     11 C           5.1391   -1.1628   19.7466 C.ar    1  UNL1        0.0824
     12 C           3.7145   -1.6152   19.6206 C.ar    1  UNL1       -0.0017
     13 C           3.2560   -3.0132   19.3282 C.3     1  UNL1        0.0323
     14 C           2.8290   -0.4243   19.8384 C.ar    1  UNL1        0.0716
     15 BR          1.3294   -0.4222   19.8020 Br      1  UNL1       -0.0456
     16 O           3.2380    2.1634   20.3689 O.3     1  UNL1       -0.4692
     17 C           3.0779    2.6414   21.7816 C.3     1  UNL1        0.2061
     18 C           1.5574    1.1810   23.2998 C.3     1  UNL1        0.0040
     19 C           2.9239    1.6494   22.8962 C.3     1  UNL1        0.0474
     20 C           7.9064   -5.7826   24.0186 C.ar    1  UNL1       -0.0227
     21 C           8.8407   -6.9225   23.7404 C.ar    1  UNL1       -0.0043
     22 C           9.2285   -7.8610   24.8445 C.ar    1  UNL1       -0.0006
     23 C           8.6819   -7.6594   26.2268 C.ar    1  UNL1       -0.0030
     24 C           7.7475   -6.5194   26.5049 C.ar    1  UNL1       -0.0069
     25 C           7.3597   -5.5810   25.4008 C.ar    1  UNL1       -0.0072
     26 C           7.2009   -6.3178   27.8871 C.3     1  UNL1        0.0922
     27 N           5.8146   -5.7761   28.0738 N.3     1  UNL1       -0.3175
     28 H           5.7763   -4.8154   27.7333 H       1  UNL1        0.1192
     29 H           5.5724   -5.7956   29.0645 H       1  UNL1        0.1192
@<TRIPOS>BOND
     1    18    19    1
     2    19    17    1
     3    17    16    1
     4    16     9    1
     5     9    10   ar
     6    10    11   ar
     7    11     1    1
     8     1     2    2
     9     1     3   am
    10     3     4    1
    11     4     5    1
    12     5     6    1
    13     6    20    1
    14    20    21   ar
    15    21    22   ar
    16    22    23   ar
    17    23    24   ar
    18    24    26    1
    19    26    27    1
    20    24    25   ar
    21     6     7    1
    22     7     8    1
    23    11    12   ar
    24    12    13    1
    25    12    14   ar
    26    14    15    1
    27    14     9   ar
    28     8     3    1
    29    25    20   ar
    30    27    28    1
    31    27    29    1
@<TRIPOS>MOLECULE
*****
 29 31 0 0 0
SMALL
GASTEIGER

@<TRIPOS>ATOM
      1 C           7.4198   -4.5334   21.5285 C.2     1  UNL1        0.2548
      2 O           8.2159   -5.7025   21.0289 O.2     1  UNL1       -0.2694
      3 N           7.2458   -4.3197   23.0030 N.am    1  UNL1       -0.2757
      4 C           7.8679   -5.2751   23.9778 C.3     1  UNL1        0.0941
      5 C           7.6939   -5.0614   25.4523 C.3     1  UNL1        0.0259
      6 C           6.8978   -3.8923   25.9519 C.3     1  UNL1        0.0257
      7 C           6.2758   -2.9369   24.9771 C.3     1  UNL1        0.0259
      8 C           6.4498   -3.1507   23.5026 C.3     1  UNL1        0.0941
      9 C           5.1711   -2.4255   19.1695 C.ar    1  UNL1        0.1747
     10 S           5.3490   -3.5304   20.1683 S.2     1  UNL1       -0.0459
     11 C           6.7978   -3.5780   20.5537 C.ar    1  UNL1        0.0824
     12 C           7.5154   -2.5026   19.7931 C.ar    1  UNL1       -0.0017
     13 C           8.9810   -2.1937   19.8737 C.3     1  UNL1        0.0323
     14 C           6.5101   -1.7902   18.9376 C.ar    1  UNL1        0.0716
     15 BR          6.7938   -0.6440   18.0126 Br      1  UNL1       -0.0456
     16 O           3.8808   -2.0259   18.5172 O.3     1  UNL1       -0.4692
     17 C           3.0692   -0.9006   19.0871 C.3     1  UNL1        0.2061
     18 C           1.3018    0.9067   18.4870 C.3     1  UNL1        0.0040
     19 C           2.5984    0.2108   18.1965 C.3     1  UNL1        0.0474
     20 C           6.7238   -3.6786   27.4264 C.ar    1  UNL1       -0.0227
     21 C           6.3164   -2.3319   27.9461 C.ar    1  UNL1       -0.0043
     22 C           6.1424   -2.1182   29.4207 C.ar    1  UNL1       -0.0006
     23 C           6.3759   -3.2513   30.3754 C.ar    1  UNL1       -0.0030
     24 C           6.7834   -4.5981   29.8556 C.ar    1  UNL1       -0.0069
     25 C           6.9574   -4.8118   28.3811 C.ar    1  UNL1       -0.0072
     26 C           7.0169   -5.7313   30.8103 C.3     1  UNL1        0.0922
     27 N           6.5976   -5.6019   32.2447 N.3     1  UNL1       -0.3175
     28 H           7.1558   -4.8788   32.6983 H       1  UNL1        0.1192
     29 H           6.7409   -6.4917   32.7224 H       1  UNL1        0.1192
@<TRIPOS>BOND
     1    18    19    1
     2    19    17    1
     3    17    16    1
     4    16     9    1
     5     9    10   ar
     6    10    11   ar
     7    11     1    1
     8     1     2    2
     9     1     3   am
    10     3     4    1
    11     4     5    1
    12     5     6    1
    13     6    20    1
    14    20    21   ar
    15    21    22   ar
    16    22    23   ar
    17    23    24   ar
    18    24    26    1
    19    26    27    1
    20    24    25   ar
    21     6     7    1
    22     7     8    1
    23    11    12   ar
    24    12    13    1
    25    12    14   ar
    26    14    15    1
    27    14     9   ar
    28     8     3    1
    29    25    20   ar
    30    27    28    1
    31    27    29    1
@<TRIPOS>MOLECULE
*****
 29 31 0 0 0
SMALL
GASTEIGER

@<TRIPOS>ATOM
      1 C          -1.1026    3.5590   18.9986 C.2     1  UNL1        0.2548
      2 O          -1.0746    4.0569   17.5839 O.2     1  UNL1       -0.2694
      3 N          -0.1748    2.4603   19.4256 N.am    1  UNL1       -0.2757
      4 C           0.7809    1.8596   18.4378 C.3     1  UNL1        0.0941
      5 C           1.7086    0.7610   18.8648 C.3     1  UNL1        0.0259
      6 C           1.6806    0.2631   20.2795 C.3     1  UNL1        0.0257
      7 C           0.7249    0.8638   21.2672 C.3     1  UNL1        0.0259
      8 C          -0.2028    1.9625   20.8402 C.3     1  UNL1        0.0941
      9 C          -4.0856    4.6723   21.2183 C.ar    1  UNL1        0.1747
     10 S          -3.5207    3.8463   20.1009 S.2     1  UNL1       -0.0459
     11 C          -2.0583    4.1598   19.9864 C.ar    1  UNL1        0.0824
     12 C          -1.7194    5.1795   21.0329 C.ar    1  UNL1       -0.0017
     13 C          -0.3654    5.7776   21.2755 C.3     1  UNL1        0.0323
     14 C          -2.9724    5.4963   21.7944 C.ar    1  UNL1        0.0716
     15 BR         -3.0913    6.4666   22.9320 Br      1  UNL1       -0.0456
     16 O          -5.5132    4.6739   21.6789 O.3     1  UNL1       -0.4692
     17 C          -5.9279    3.8188   22.8393 C.3     1  UNL1        0.2061
     18 C          -5.8841    4.8086   25.2410 C.3     1  UNL1        0.0040
     19 C          -6.6456    4.4325   24.0047 C.3     1  UNL1        0.0474
     20 C           2.6083   -0.8356   20.7064 C.ar    1  UNL1       -0.0227
     21 C           2.9763   -0.9869   22.1526 C.ar    1  UNL1       -0.0043
     22 C           3.9040   -2.0856   22.5796 C.ar    1  UNL1       -0.0006
     23 C           4.4638   -3.0330   21.5602 C.ar    1  UNL1       -0.0030
     24 C           4.0959   -2.8816   20.1138 C.ar    1  UNL1       -0.0069
     25 C           3.1681   -1.7830   19.6870 C.ar    1  UNL1       -0.0072
     26 C           4.6557   -3.8290   19.0944 C.3     1  UNL1        0.0922
     27 N           5.2122   -3.3007   17.8055 N.3     1  UNL1       -0.3175
     28 H           4.4607   -2.8835   17.2563 H       1  UNL1        0.1192
     29 H           5.6343   -4.0653   17.2787 H       1  UNL1        0.1192
@<TRIPOS>BOND
     1    18    19    1
     2    19    17    1
     3    17    16    1
     4    16     9    1
     5     9    10   ar
     6    10    11   ar
     7    11     1    1
     8     1     2    2
     9     1     3   am
    10     3     4    1
    11     4     5    1
    12     5     6    1
    13     6    20    1
    14    20    21   ar
    15    21    22   ar
    16    22    23   ar
    17    23    24   ar
    18    24    26    1
    19    26    27    1
    20    24    25   ar
    21     6     7    1
    22     7     8    1
    23    11    12   ar
    24    12    13    1
    25    12    14   ar
    26    14    15    1
    27    14     9   ar
    28     8     3    1
    29    25    20   ar
    30    27    28    1
    31    27    29    1
