@<TRIPOS>MOLECULE
*****
 29 31 0 0 0
SMALL
GASTEIGER

@<TRIPOS>ATOM
      1 N          -8.3033  -17.8626   22.9537 N.am    1  UNL1       -0.2904
      2 C          -7.9112  -19.2843   22.6802 C.2     1  UNL1        0.2673
      3 O          -8.6788  -20.4085   23.3102 O.2     1  UNL1       -0.2684
      4 H          -7.7995  -17.1247   22.5402 H       1  UNL1        0.1503
      5 C          -6.7514  -19.5819   21.7766 C.ar    1  UNL1        0.1761
      6 C          -5.5427  -18.7158   21.5792 C.ar    1  UNL1        0.0673
      7 C          -4.6409  -19.3964   20.5925 C.ar    1  UNL1        0.1792
      8 O          -5.2923  -20.6831   20.1801 O.2     1  UNL1       -0.3532
      9 N          -6.5966  -20.7978   20.9119 N.ar    1  UNL1       -0.0723
     10 C          -3.3197  -18.8808   20.1039 C.ar    1  UNL1        0.0647
     11 C          -3.2540  -18.0479   18.8581 C.ar    1  UNL1        0.0054
     12 C          -1.9328  -17.5323   18.3696 C.ar    1  UNL1        0.0002
     13 C          -0.6774  -17.8497   19.1268 C.ar    1  UNL1        0.0023
     14 C          -0.7432  -18.6825   20.3725 C.ar    1  UNL1        0.0297
     15 C          -2.0644  -19.1981   20.8611 C.ar    1  UNL1        0.1431
     16 F          -2.1302  -20.0310   22.1069 F       1  UNL1       -0.2041
     17 C          -9.4632  -17.5651   23.8572 C.3     1  UNL1        0.1945
     18 C          -9.2209  -17.1814   25.2869 C.2     1  UNL1        0.3369
     19 O          -9.4164  -18.1919   26.3782 O.2     1  UNL1       -0.2482
     20 O          -8.7831  -15.7872   25.6254 O.3     1  UNL1       -0.4511
     21 C          -6.7993  -15.4742   27.2737 C.3     1  UNL1        0.0473
     22 C          -7.3324  -15.4956   25.8718 C.3     1  UNL1        0.1691
     23 C          -6.4149  -15.2255   24.7163 C.3     1  UNL1        0.0473
     24 C         -10.8652  -17.6512   23.3310 C.3     1  UNL1        0.1386
     25 N         -11.1534  -17.2953   21.9027 N.ar    1  UNL1       -0.3055
     26 C         -11.0691  -15.9236   21.3017 C.ar    1  UNL1        0.0981
     27 C         -11.4401  -16.0290   19.8520 C.ar    1  UNL1        0.1193
     28 N         -11.7536  -17.4660   19.5572 N.ar    1  UNL1       -0.2223
     29 C         -11.5764  -18.2485   20.8246 C.ar    1  UNL1        0.1787
@<TRIPOS>BOND
     1    21    22    1
     2    22    23    1
     3    22    20    1
     4    20    18    1
     5    18    19    2
     6    18    17    1
     7    17    24    1
     8    24    25    1
     9    25    26   ar
    10    26    27   ar
    11    27    28   ar
    12    28    29   ar
    13    17     1    1
    14     1     2   am
    15     2     3    2
    16     2     5    1
    17     5     6   ar
    18     6     7   ar
    19     7    10    1
    20    10    11   ar
    21    11    12   ar
    22    12    13   ar
    23    13    14   ar
    24    14    15   ar
    25    15    16    1
    26     7     8   ar
    27     8     9   ar
    28    29    25   ar
    29     9     5   ar
    30    15    10   ar
    31     1     4    1
@<TRIPOS>MOLECULE
*****
 29 31 0 0 0
SMALL
GASTEIGER

@<TRIPOS>ATOM
      1 N          -5.7033  -18.7535   22.3676 N.am    1  UNL1       -0.2904
      2 C          -6.5387  -18.6691   21.1247 C.2     1  UNL1        0.2673
      3 O          -5.8898  -18.3834   19.8028 O.2     1  UNL1       -0.2684
      4 H          -6.1292  -18.9411   23.2352 H       1  UNL1        0.1503
      5 C          -8.0231  -18.8705   21.2035 C.ar    1  UNL1        0.1761
      6 C          -8.9137  -18.4323   22.3281 C.ar    1  UNL1        0.0673
      7 C         -10.3184  -18.8364   21.9913 C.ar    1  UNL1        0.1792
      8 O         -10.2960  -19.5243   20.6586 O.2     1  UNL1       -0.3532
      9 N          -8.8773  -19.5455   20.1717 N.ar    1  UNL1       -0.0723
     10 C         -11.5326  -18.5949   22.8385 C.ar    1  UNL1        0.0647
     11 C         -11.5693  -19.0883   24.2545 C.ar    1  UNL1        0.0054
     12 C         -12.7833  -18.8469   25.1016 C.ar    1  UNL1        0.0002
     13 C         -13.9607  -18.1119   24.5327 C.ar    1  UNL1        0.0023
     14 C         -13.9240  -17.6185   23.1167 C.ar    1  UNL1        0.0297
     15 C         -12.7100  -17.8600   22.2696 C.ar    1  UNL1        0.1431
     16 F         -12.6732  -17.3665   20.8535 F       1  UNL1       -0.2041
     17 C          -4.2189  -18.5522   22.2887 C.3     1  UNL1        0.1945
     18 C          -3.5708  -17.4410   23.0601 C.2     1  UNL1        0.3369
     19 O          -2.2968  -17.6927   23.8108 O.2     1  UNL1       -0.2482
     20 O          -4.1968  -16.0780   23.0808 O.3     1  UNL1       -0.4511
     21 C          -6.6832  -15.4947   23.5581 C.3     1  UNL1        0.0473
     22 C          -5.2954  -15.7719   24.0553 C.3     1  UNL1        0.1691
     23 C          -5.0061  -15.7430   25.5268 C.3     1  UNL1        0.0473
     24 C          -3.3828  -19.4620   21.4384 C.3     1  UNL1        0.1386
     25 N          -2.4114  -18.8843   20.4523 N.ar    1  UNL1       -0.3055
     26 C          -1.0241  -18.4037   20.7594 C.ar    1  UNL1        0.0981
     27 C          -0.4120  -17.9080   19.4828 C.ar    1  UNL1        0.1193
     28 N          -1.4211  -18.0822   18.3867 N.ar    1  UNL1       -0.2223
     29 C          -2.6568  -18.6855   18.9860 C.ar    1  UNL1        0.1787
@<TRIPOS>BOND
     1    21    22    1
     2    22    23    1
     3    22    20    1
     4    20    18    1
     5    18    19    2
     6    18    17    1
     7    17    24    1
     8    24    25    1
     9    25    26   ar
    10    26    27   ar
    11    27    28   ar
    12    28    29   ar
    13    17     1    1
    14     1     2   am
    15     2     3    2
    16     2     5    1
    17     5     6   ar
    18     6     7   ar
    19     7    10    1
    20    10    11   ar
    21    11    12   ar
    22    12    13   ar
    23    13    14   ar
    24    14    15   ar
    25    15    16    1
    26     7     8   ar
    27     8     9   ar
    28    29    25   ar
    29     9     5   ar
    30    15    10   ar
    31     1     4    1
@<TRIPOS>MOLECULE
*****
 29 31 0 0 0
SMALL
GASTEIGER

@<TRIPOS>ATOM
      1 N          -8.4882  -17.9156   22.5878 N.am    1  UNL1       -0.2904
      2 C          -7.9479  -19.3130   22.5152 C.2     1  UNL1        0.2673
      3 O          -8.6004  -20.4111   23.3016 O.2     1  UNL1       -0.2684
      4 H          -8.0600  -17.1948   22.0717 H       1  UNL1        0.1503
      5 C          -6.7551  -19.6122   21.6564 C.ar    1  UNL1        0.1761
      6 C          -5.5803  -18.7068   21.4326 C.ar    1  UNL1        0.0673
      7 C          -4.6268  -19.4044   20.5084 C.ar    1  UNL1        0.1792
      8 O          -5.2123  -20.7411   20.1611 O.2     1  UNL1       -0.3532
      9 N          -6.5276  -20.8696   20.8705 N.ar    1  UNL1       -0.0723
     10 C          -3.3177  -18.8609   20.0177 C.ar    1  UNL1        0.0647
     11 C          -3.2758  -18.0006   18.7897 C.ar    1  UNL1        0.0054
     12 C          -1.9666  -17.4571   18.2991 C.ar    1  UNL1        0.0002
     13 C          -0.6994  -17.7739   19.0365 C.ar    1  UNL1        0.0023
     14 C          -0.7413  -18.6342   20.2645 C.ar    1  UNL1        0.0297
     15 C          -2.0504  -19.1777   20.7551 C.ar    1  UNL1        0.1431
     16 F          -2.0924  -20.0381   21.9832 F       1  UNL1       -0.2041
     17 C          -9.6811  -17.6163   23.4467 C.3     1  UNL1        0.1945
     18 C         -11.0135  -18.2210   23.1166 C.2     1  UNL1        0.3369
     19 O         -11.7302  -19.0578   24.1345 O.2     1  UNL1       -0.2482
     20 O         -11.6292  -17.9888   21.7686 O.3     1  UNL1       -0.4511
     21 C         -11.8394  -16.1691   19.9262 C.3     1  UNL1        0.0473
     22 C         -12.0193  -16.6018   21.3511 C.3     1  UNL1        0.1691
     23 C         -12.5891  -15.6477   22.3584 C.3     1  UNL1        0.0473
     24 C          -9.5414  -16.7124   24.6355 C.3     1  UNL1        0.1386
     25 N          -8.2345  -16.0288   24.9085 N.ar    1  UNL1       -0.3055
     26 C          -7.5527  -15.9299   26.2409 C.ar    1  UNL1        0.0981
     27 C          -6.2767  -15.1640   26.0530 C.ar    1  UNL1        0.1193
     28 N          -6.1699  -14.7896   24.6044 N.ar    1  UNL1       -0.2223
     29 C          -7.3799  -15.3241   23.8971 C.ar    1  UNL1        0.1787
@<TRIPOS>BOND
     1    21    22    1
     2    22    23    1
     3    22    20    1
     4    20    18    1
     5    18    19    2
     6    18    17    1
     7    17    24    1
     8    24    25    1
     9    25    26   ar
    10    26    27   ar
    11    27    28   ar
    12    28    29   ar
    13    17     1    1
    14     1     2   am
    15     2     3    2
    16     2     5    1
    17     5     6   ar
    18     6     7   ar
    19     7    10    1
    20    10    11   ar
    21    11    12   ar
    22    12    13   ar
    23    13    14   ar
    24    14    15   ar
    25    15    16    1
    26     7     8   ar
    27     8     9   ar
    28    29    25   ar
    29     9     5   ar
    30    15    10   ar
    31     1     4    1
@<TRIPOS>MOLECULE
*****
 29 31 0 0 0
SMALL
GASTEIGER

@<TRIPOS>ATOM
      1 N          -8.5640  -19.8974   22.5034 N.am    1  UNL1       -0.2904
      2 C          -7.8057  -18.9307   21.6428 C.2     1  UNL1        0.2673
      3 O          -8.3734  -17.5709   21.3629 O.2     1  UNL1       -0.2684
      4 H          -8.1913  -20.7899   22.6871 H       1  UNL1        0.1503
      5 C          -6.4797  -19.3240   21.0621 C.ar    1  UNL1        0.1761
      6 C          -5.2374  -18.4834   21.0522 C.ar    1  UNL1        0.0673
      7 C          -4.1532  -19.2668   20.3734 C.ar    1  UNL1        0.1792
      8 O          -4.7253  -20.5915   19.9639 O.2     1  UNL1       -0.3532
      9 N          -6.1632  -20.6269   20.3895 N.ar    1  UNL1       -0.0723
     10 C          -2.7440  -18.8062   20.1443 C.ar    1  UNL1        0.0647
     11 C          -1.6292  -19.3572   20.9831 C.ar    1  UNL1        0.0054
     12 C          -0.2202  -18.8967   20.7540 C.ar    1  UNL1        0.0002
     13 C           0.0740  -17.8852   19.6862 C.ar    1  UNL1        0.0023
     14 C          -1.0408  -17.3343   18.8474 C.ar    1  UNL1        0.0297
     15 C          -2.4498  -17.7948   19.0765 C.ar    1  UNL1        0.1431
     16 F          -3.5647  -17.2438   18.2376 F       1  UNL1       -0.2041
     17 C          -9.8899  -19.5041   23.0840 C.3     1  UNL1        0.1945
     18 C          -9.9757  -19.0301   24.5045 C.2     1  UNL1        0.3369
     19 O          -9.9421  -20.0218   25.6295 O.2     1  UNL1       -0.2482
     20 O         -10.0950  -17.5644   24.8001 O.3     1  UNL1       -0.4511
     21 C          -8.6337  -16.8565   26.8283 C.3     1  UNL1        0.0473
     22 C          -8.9218  -16.8136   25.3568 C.3     1  UNL1        0.1691
     23 C          -8.0367  -16.0199   24.4422 C.3     1  UNL1        0.0473
     24 C         -11.1301  -19.5849   22.2441 C.3     1  UNL1        0.1386
     25 N         -11.5651  -18.4006   21.4330 N.ar    1  UNL1       -0.3055
     26 C         -12.3157  -17.2079   21.9468 C.ar    1  UNL1        0.0981
     27 C         -12.5404  -16.2710   20.7970 C.ar    1  UNL1        0.1193
     28 N         -11.9286  -16.8848   19.5726 N.ar    1  UNL1       -0.2223
     29 C         -11.3258  -18.2010   19.9658 C.ar    1  UNL1        0.1787
@<TRIPOS>BOND
     1    21    22    1
     2    22    23    1
     3    22    20    1
     4    20    18    1
     5    18    19    2
     6    18    17    1
     7    17    24    1
     8    24    25    1
     9    25    26   ar
    10    26    27   ar
    11    27    28   ar
    12    28    29   ar
    13    17     1    1
    14     1     2   am
    15     2     3    2
    16     2     5    1
    17     5     6   ar
    18     6     7   ar
    19     7    10    1
    20    10    11   ar
    21    11    12   ar
    22    12    13   ar
    23    13    14   ar
    24    14    15   ar
    25    15    16    1
    26     7     8   ar
    27     8     9   ar
    28    29    25   ar
    29     9     5   ar
    30    15    10   ar
    31     1     4    1
@<TRIPOS>MOLECULE
*****
 29 31 0 0 0
SMALL
GASTEIGER

@<TRIPOS>ATOM
      1 N          -5.0380  -17.9583   22.8454 N.am    1  UNL1       -0.2904
      2 C          -5.9922  -18.4999   21.8226 C.2     1  UNL1        0.2673
      3 O          -5.6010  -18.5321   20.3748 O.2     1  UNL1       -0.2684
      4 H          -5.2947  -17.9372   23.7956 H       1  UNL1        0.1503
      5 C          -7.3376  -19.0093   22.2475 C.ar    1  UNL1        0.1761
      6 C          -8.5789  -18.1848   22.4184 C.ar    1  UNL1        0.0673
      7 C          -9.6863  -19.0986   22.8526 C.ar    1  UNL1        0.1792
      8 O          -9.1294  -20.4880   22.9501 O.2     1  UNL1       -0.3532
      9 N          -7.6778  -20.4329   22.5761 N.ar    1  UNL1       -0.0723
     10 C         -11.1021  -18.6941   23.1391 C.ar    1  UNL1        0.0647
     11 C         -11.9337  -18.0616   22.0629 C.ar    1  UNL1        0.0054
     12 C         -13.3494  -17.6571   22.3494 C.ar    1  UNL1        0.0002
     13 C         -13.9335  -17.8852   23.7120 C.ar    1  UNL1        0.0023
     14 C         -13.1018  -18.5177   24.7882 C.ar    1  UNL1        0.0297
     15 C         -11.6861  -18.9221   24.5017 C.ar    1  UNL1        0.1431
     16 F         -10.8544  -19.5547   25.5779 F       1  UNL1       -0.2041
     17 C          -3.6927  -17.4489   22.4205 C.3     1  UNL1        0.1945
     18 C          -3.4068  -15.9766   22.4433 C.2     1  UNL1        0.3369
     19 O          -2.0604  -15.4673   22.0215 O.2     1  UNL1       -0.2482
     20 O          -4.4674  -15.0135   22.8879 O.3     1  UNL1       -0.4511
     21 C          -4.7318  -15.6666   25.3887 C.3     1  UNL1        0.0473
     22 C          -5.3451  -15.3514   24.0565 C.3     1  UNL1        0.1691
     23 C          -6.8360  -15.3741   23.8930 C.3     1  UNL1        0.0473
     24 C          -2.6332  -18.4118   21.9728 C.3     1  UNL1        0.1386
     25 N          -1.9758  -18.2353   20.6362 N.ar    1  UNL1       -0.3055
     26 C          -2.6731  -17.9268   19.3445 C.ar    1  UNL1        0.0981
     27 C          -1.6338  -17.8372   18.2665 C.ar    1  UNL1        0.1193
     28 N          -0.2942  -18.0902   18.8921 N.ar    1  UNL1       -0.2223
     29 C          -0.5056  -18.3362   20.3566 C.ar    1  UNL1        0.1787
@<TRIPOS>BOND
     1    21    22    1
     2    22    23    1
     3    22    20    1
     4    20    18    1
     5    18    19    2
     6    18    17    1
     7    17    24    1
     8    24    25    1
     9    25    26   ar
    10    26    27   ar
    11    27    28   ar
    12    28    29   ar
    13    17     1    1
    14     1     2   am
    15     2     3    2
    16     2     5    1
    17     5     6   ar
    18     6     7   ar
    19     7    10    1
    20    10    11   ar
    21    11    12   ar
    22    12    13   ar
    23    13    14   ar
    24    14    15   ar
    25    15    16    1
    26     7     8   ar
    27     8     9   ar
    28    29    25   ar
    29     9     5   ar
    30    15    10   ar
    31     1     4    1
@<TRIPOS>MOLECULE
*****
 29 31 0 0 0
SMALL
GASTEIGER

@<TRIPOS>ATOM
      1 N          -8.5382  -18.9052   23.5202 N.am    1  UNL1       -0.2904
      2 C          -8.0741  -18.3293   22.2152 C.2     1  UNL1        0.2673
      3 O          -8.8443  -17.2149   21.5710 O.2     1  UNL1       -0.2684
      4 H          -8.0327  -19.6366   23.9430 H       1  UNL1        0.1503
      5 C          -6.8398  -18.8677   21.5544 C.ar    1  UNL1        0.1761
      6 C          -5.5167  -18.1683   21.4545 C.ar    1  UNL1        0.0673
      7 C          -4.5711  -19.0685   20.7159 C.ar    1  UNL1        0.1792
      8 O          -5.3099  -20.3243   20.3594 O.2     1  UNL1       -0.3532
      9 N          -6.7120  -20.2003   20.8776 N.ar    1  UNL1       -0.0723
     10 C          -3.1383  -18.7659   20.3909 C.ar    1  UNL1        0.0647
     11 C          -2.0429  -19.2866   21.2735 C.ar    1  UNL1        0.0054
     12 C          -0.6102  -18.9841   20.9484 C.ar    1  UNL1        0.0002
     13 C          -0.2728  -18.1609   19.7407 C.ar    1  UNL1        0.0023
     14 C          -1.3681  -17.6402   18.8581 C.ar    1  UNL1        0.0297
     15 C          -2.8009  -17.9427   19.1832 C.ar    1  UNL1        0.1431
     16 F          -3.8963  -17.4220   18.3006 F       1  UNL1       -0.2041
     17 C          -9.7725  -18.3667   24.1809 C.3     1  UNL1        0.1945
     18 C         -11.1245  -18.8636   23.7628 C.2     1  UNL1        0.3369
     19 O         -12.3291  -18.5571   24.6026 O.2     1  UNL1       -0.2482
     20 O         -11.2721  -19.6671   22.5048 O.3     1  UNL1       -0.4511
     21 C         -12.4014  -17.7813   21.1196 C.3     1  UNL1        0.0473
     22 C         -11.4939  -18.9733   21.1934 C.3     1  UNL1        0.1691
     23 C         -10.8082  -19.4716   19.9559 C.3     1  UNL1        0.0473
     24 C          -9.6547  -17.3313   25.2598 C.3     1  UNL1        0.1386
     25 N          -8.4585  -16.4275   25.3045 N.ar    1  UNL1       -0.3055
     26 C          -7.4832  -16.3111   26.4382 C.ar    1  UNL1        0.0981
     27 C          -6.4493  -15.2930   26.0577 C.ar    1  UNL1        0.1193
     28 N          -6.7857  -14.7801   24.6888 N.ar    1  UNL1       -0.2223
     29 C          -8.0274  -15.4813   24.2234 C.ar    1  UNL1        0.1787
@<TRIPOS>BOND
     1    21    22    1
     2    22    23    1
     3    22    20    1
     4    20    18    1
     5    18    19    2
     6    18    17    1
     7    17    24    1
     8    24    25    1
     9    25    26   ar
    10    26    27   ar
    11    27    28   ar
    12    28    29   ar
    13    17     1    1
    14     1     2   am
    15     2     3    2
    16     2     5    1
    17     5     6   ar
    18     6     7   ar
    19     7    10    1
    20    10    11   ar
    21    11    12   ar
    22    12    13   ar
    23    13    14   ar
    24    14    15   ar
    25    15    16    1
    26     7     8   ar
    27     8     9   ar
    28    29    25   ar
    29     9     5   ar
    30    15    10   ar
    31     1     4    1
@<TRIPOS>MOLECULE
*****
 29 31 0 0 0
SMALL
GASTEIGER

@<TRIPOS>ATOM
      1 N           6.2352   -4.1663   25.1090 N.am    1  UNL1       -0.2904
      2 C           5.9579   -2.8617   24.4226 C.2     1  UNL1        0.2673
      3 O           6.4108   -1.5750   25.0463 O.2     1  UNL1       -0.2684
      4 H           5.9379   -5.0109   24.6996 H       1  UNL1        0.1503
      5 C           5.2276   -2.8439   23.1124 C.ar    1  UNL1        0.1761
      6 C           4.5063   -1.6693   22.5210 C.ar    1  UNL1        0.0673
      7 C           3.9234   -2.0970   21.2067 C.ar    1  UNL1        0.1792
      8 O           4.2844   -3.5361   20.9860 O.2     1  UNL1       -0.3532
      9 N           5.0905   -3.9978   22.1637 N.ar    1  UNL1       -0.0723
     10 C           3.1204   -1.2368   20.2765 C.ar    1  UNL1        0.0647
     11 C           1.7224   -0.8364   20.6442 C.ar    1  UNL1        0.0054
     12 C           0.9195    0.0238   19.7140 C.ar    1  UNL1        0.0002
     13 C           1.5146    0.4837   18.4162 C.ar    1  UNL1        0.0023
     14 C           2.9126    0.0833   18.0485 C.ar    1  UNL1        0.0297
     15 C           3.7155   -0.7769   18.9787 C.ar    1  UNL1        0.1431
     16 F           5.1136   -1.1774   18.6110 F       1  UNL1       -0.2041
     17 C           6.9654   -4.1841   26.4191 C.3     1  UNL1        0.1945
     18 C           8.4222   -4.5388   26.4610 C.2     1  UNL1        0.3369
     19 O           9.4588   -3.4546   26.4502 O.2     1  UNL1       -0.2482
     20 O           8.8425   -5.9778   26.5135 O.3     1  UNL1       -0.4511
     21 C           8.3972   -7.1085   24.2171 C.3     1  UNL1        0.0473
     22 C           8.1204   -7.0007   25.6874 C.3     1  UNL1        0.1691
     23 C           7.1216   -7.9157   26.3316 C.3     1  UNL1        0.0473
     24 C           6.2388   -3.8472   27.6874 C.3     1  UNL1        0.1386
     25 N           6.7860   -4.3004   29.0083 N.ar    1  UNL1       -0.3055
     26 C           6.8395   -5.7160   29.5015 C.ar    1  UNL1        0.0981
     27 C           7.4624   -5.7083   30.8661 C.ar    1  UNL1        0.1193
     28 N           7.7939   -4.2878   31.2163 N.ar    1  UNL1       -0.2223
     29 C           7.3758   -3.4178   30.0680 C.ar    1  UNL1        0.1787
@<TRIPOS>BOND
     1    21    22    1
     2    22    23    1
     3    22    20    1
     4    20    18    1
     5    18    19    2
     6    18    17    1
     7    17    24    1
     8    24    25    1
     9    25    26   ar
    10    26    27   ar
    11    27    28   ar
    12    28    29   ar
    13    17     1    1
    14     1     2   am
    15     2     3    2
    16     2     5    1
    17     5     6   ar
    18     6     7   ar
    19     7    10    1
    20    10    11   ar
    21    11    12   ar
    22    12    13   ar
    23    13    14   ar
    24    14    15   ar
    25    15    16    1
    26     7     8   ar
    27     8     9   ar
    28    29    25   ar
    29     9     5   ar
    30    15    10   ar
    31     1     4    1
@<TRIPOS>MOLECULE
*****
 29 31 0 0 0
SMALL
GASTEIGER

@<TRIPOS>ATOM
      1 N           2.4141    1.8323   35.1700 N.am    1  UNL1       -0.2904
      2 C           3.4091    1.5127   34.0940 C.2     1  UNL1        0.2673
      3 O           4.8598    1.8378   34.2934 O.2     1  UNL1       -0.2684
      4 H           1.4620    1.6189   35.0391 H       1  UNL1        0.1503
      5 C           2.9534    0.8679   32.8186 C.ar    1  UNL1        0.1761
      6 C           2.1778    1.5350   31.7216 C.ar    1  UNL1        0.0673
      7 C           1.9384    0.5223   30.6413 C.ar    1  UNL1        0.1792
      8 O           2.5660   -0.7707   31.0706 O.2     1  UNL1       -0.3532
      9 N           3.1934   -0.5571   32.4163 N.ar    1  UNL1       -0.0723
     10 C           1.2008    0.7607   29.3570 C.ar    1  UNL1        0.0647
     11 C          -0.2991    0.7496   29.3404 C.ar    1  UNL1        0.0054
     12 C          -1.0366    0.9880   28.0562 C.ar    1  UNL1        0.0002
     13 C          -0.2742    1.2374   26.7886 C.ar    1  UNL1        0.0023
     14 C           1.2256    1.2484   26.8053 C.ar    1  UNL1        0.0297
     15 C           1.9631    1.0100   28.0895 C.ar    1  UNL1        0.1431
     16 F           3.4630    1.0210   28.1062 F       1  UNL1       -0.2041
     17 C           2.8698    2.4770   36.4454 C.3     1  UNL1        0.1945
     18 C           3.2948    1.6265   37.6055 C.2     1  UNL1        0.3369
     19 O           4.2782    0.5128   37.3986 O.2     1  UNL1       -0.2482
     20 O           2.7365    1.8897   38.9727 O.3     1  UNL1       -0.4511
     21 C           0.2101    2.3782   39.3317 C.3     1  UNL1        0.0473
     22 C           1.3584    1.4130   39.3245 C.3     1  UNL1        0.1691
     23 C           1.1286   -0.0286   39.6691 C.3     1  UNL1        0.0473
     24 C           2.9005    3.9723   36.5607 C.3     1  UNL1        0.1386
     25 N           1.8162    4.7954   35.9311 N.ar    1  UNL1       -0.3055
     26 C           0.8785    5.7181   36.6518 C.ar    1  UNL1        0.0981
     27 C          -0.0381    6.3334   35.6362 C.ar    1  UNL1        0.1193
     28 N           0.3330    5.7910   34.2879 N.ar    1  UNL1       -0.2223
     29 C           1.4790    4.8404   34.4702 C.ar    1  UNL1        0.1787
@<TRIPOS>BOND
     1    21    22    1
     2    22    23    1
     3    22    20    1
     4    20    18    1
     5    18    19    2
     6    18    17    1
     7    17    24    1
     8    24    25    1
     9    25    26   ar
    10    26    27   ar
    11    27    28   ar
    12    28    29   ar
    13    17     1    1
    14     1     2   am
    15     2     3    2
    16     2     5    1
    17     5     6   ar
    18     6     7   ar
    19     7    10    1
    20    10    11   ar
    21    11    12   ar
    22    12    13   ar
    23    13    14   ar
    24    14    15   ar
    25    15    16    1
    26     7     8   ar
    27     8     9   ar
    28    29    25   ar
    29     9     5   ar
    30    15    10   ar
    31     1     4    1
@<TRIPOS>MOLECULE
*****
 29 31 0 0 0
SMALL
GASTEIGER

@<TRIPOS>ATOM
      1 N           6.0532   -4.2222   24.9514 N.am    1  UNL1       -0.2904
      2 C           6.2327   -3.0894   23.9847 C.2     1  UNL1        0.2673
      3 O           7.2618   -2.0314   24.2520 O.2     1  UNL1       -0.2684
      4 H           5.3777   -4.9166   24.7760 H       1  UNL1        0.1503
      5 C           5.3830   -3.0146   22.7508 C.ar    1  UNL1        0.1761
      6 C           4.6718   -1.7956   22.2426 C.ar    1  UNL1        0.0673
      7 C           3.9447   -2.1733   20.9862 C.ar    1  UNL1        0.1792
      8 O           4.2065   -3.6257   20.7179 O.2     1  UNL1       -0.3532
      9 N           5.0954   -4.1457   21.8084 N.ar    1  UNL1       -0.0723
     10 C           3.1034   -1.2590   20.1456 C.ar    1  UNL1        0.0647
     11 C           1.7404   -0.8481   20.6183 C.ar    1  UNL1        0.0054
     12 C           0.8992    0.0661   19.7777 C.ar    1  UNL1        0.0002
     13 C           1.4210    0.5693   18.4645 C.ar    1  UNL1        0.0023
     14 C           2.7839    0.1584   17.9918 C.ar    1  UNL1        0.0297
     15 C           3.6251   -0.7558   18.8324 C.ar    1  UNL1        0.1431
     16 F           4.9882   -1.1668   18.3598 F       1  UNL1       -0.2041
     17 C           6.9028   -4.2970   26.1853 C.3     1  UNL1        0.1945
     18 C           6.4692   -3.5953   27.4381 C.2     1  UNL1        0.3369
     19 O           6.1579   -2.1282   27.4067 O.2     1  UNL1       -0.2482
     20 O           6.3468   -4.3607   28.7223 O.3     1  UNL1       -0.4511
     21 C           6.8880   -4.3531   31.2635 C.3     1  UNL1        0.0473
     22 C           7.3063   -4.0995   29.8455 C.3     1  UNL1        0.1691
     23 C           8.6839   -3.5846   29.5506 C.3     1  UNL1        0.0473
     24 C           8.1861   -5.0735   26.1664 C.3     1  UNL1        0.1386
     25 N           8.2171   -6.4835   26.6768 N.ar    1  UNL1       -0.3055
     26 C           9.0505   -6.9906   27.8162 C.ar    1  UNL1        0.0981
     27 C           8.7686   -8.4546   27.9812 C.ar    1  UNL1        0.1193
     28 N           7.7609   -8.8524   26.9437 N.ar    1  UNL1       -0.2223
     29 C           7.4200   -7.6341   26.1376 C.ar    1  UNL1        0.1787
@<TRIPOS>BOND
     1    21    22    1
     2    22    23    1
     3    22    20    1
     4    20    18    1
     5    18    19    2
     6    18    17    1
     7    17    24    1
     8    24    25    1
     9    25    26   ar
    10    26    27   ar
    11    27    28   ar
    12    28    29   ar
    13    17     1    1
    14     1     2   am
    15     2     3    2
    16     2     5    1
    17     5     6   ar
    18     6     7   ar
    19     7    10    1
    20    10    11   ar
    21    11    12   ar
    22    12    13   ar
    23    13    14   ar
    24    14    15   ar
    25    15    16    1
    26     7     8   ar
    27     8     9   ar
    28    29    25   ar
    29     9     5   ar
    30    15    10   ar
    31     1     4    1
