@<TRIPOS>MOLECULE
*****
 38 42 0 0 0
SMALL
GASTEIGER

@<TRIPOS>ATOM
      1 C           2.4625    0.6143   31.2945 C.ar    1  UNL1        0.0511
      2 C           1.3776    1.6120   31.0160 C.ar    1  UNL1        0.0160
      3 C           0.7022    1.6314   29.6767 C.ar    1  UNL1        0.0190
      4 C           1.1118    0.6531   28.6160 C.ar    1  UNL1        0.0850
      5 C           2.1967   -0.3446   28.8946 C.ar    1  UNL1        0.1533
      6 C           2.8721   -0.3640   30.2338 C.ar    1  UNL1        0.0527
      7 C           5.1635    0.5372   36.6516 C.2     1  UNL1        0.2419
      8 O           6.1011   -0.5797   37.0029 O.2     1  UNL1       -0.2734
      9 N           4.4882    0.5566   35.3123 N.am    1  UNL1       -0.2749
     10 C           3.5507    1.6735   34.9611 C.3     1  UNL1        0.1149
     11 C           2.8754    1.6927   33.6218 C.3     1  UNL1        0.1123
     12 N           3.1377    0.5950   32.6338 N.pl3   1  UNL1       -0.3040
     13 C           4.0753   -0.5219   32.9850 C.3     1  UNL1        0.1123
     14 C           4.7505   -0.5412   34.3243 C.3     1  UNL1        0.1149
     15 C           4.9012    1.6350   37.6396 C.3     1  UNL1        0.1552
     16 C           2.5400    1.0002   38.5182 C.3     1  UNL1        0.0862
     17 N           3.9598    1.4045   38.7844 N.3     1  UNL1       -0.2886
     18 H           4.3716    0.6709   39.3612 H       1  UNL1        0.1237
     19 N           0.4365    0.6724   27.2768 N.pl3   1  UNL1       -0.2802
     20 H          -0.4575    0.2740   27.1704 H       1  UNL1        0.1552
     21 C           1.1234    1.2986   26.0995 C.ar    1  UNL1        0.2208
     22 N           1.8578    2.5964   26.2627 N.ar    1  UNL1       -0.2111
     23 C           2.5447    3.2227   25.0855 C.ar    1  UNL1        0.1147
     24 C           2.4973    2.5513   23.7450 C.ar    1  UNL1        0.0960
     25 CL          3.1842    3.1776   22.5678 Cl      1  UNL1       -0.0790
     26 C           1.7629    1.2535   23.5818 C.ar    1  UNL1        0.1138
     27 N           1.0760    0.6272   24.7590 N.ar    1  UNL1       -0.2111
     28 C           1.7155    0.5821   22.2413 C.ar    1  UNL1        0.1031
     29 C           0.8013    0.9408   21.1073 C.ar    1  UNL1        0.1196
     30 N           1.0947    0.0145   19.9646 N.ar    1  UNL1       -0.2248
     31 C           2.1901   -0.9167   20.3923 C.ar    1  UNL1        0.1479
     32 C           2.8878   -2.0388   19.6822 C.ar    1  UNL1        0.0374
     33 C           3.9692   -2.8101   20.3793 C.ar    1  UNL1        0.0046
     34 C           4.3528   -2.4593   21.7863 C.ar    1  UNL1        0.0191
     35 C           3.6551   -1.3372   22.4964 C.ar    1  UNL1        0.0815
     36 N           2.5738   -0.5659   21.7994 N.ar    1  UNL1       -0.2874
     37 O           2.6063   -1.3230   27.8339 O.3     1  UNL1       -0.4701
     38 C           3.8364   -1.0689   27.0139 C.3     1  UNL1        0.2525
@<TRIPOS>BOND
     1    16    17    1
     2    17    15    1
     3    15     7    1
     4     7     8    2
     5     7     9   am
     6     9    10    1
     7    10    11    1
     8    11    12    1
     9    12     1    1
    10     1     2   ar
    11     2     3   ar
    12     3     4   ar
    13     4    19    1
    14    19    21    1
    15    21    22   ar
    16    22    23   ar
    17    23    24   ar
    18    24    25    1
    19    24    26   ar
    20    26    28    1
    21    28    29   ar
    22    29    30   ar
    23    30    31   ar
    24    31    32   ar
    25    32    33   ar
    26    33    34   ar
    27    34    35   ar
    28    35    36   ar
    29    26    27   ar
    30     4     5   ar
    31     5    37    1
    32    37    38    1
    33     5     6   ar
    34    12    13    1
    35    13    14    1
    36    14     9    1
    37     6     1   ar
    38    27    21   ar
    39    36    28   ar
    40    36    31   ar
    41    17    18    1
    42    19    20    1
@<TRIPOS>MOLECULE
*****
 38 42 0 0 0
SMALL
GASTEIGER

@<TRIPOS>ATOM
      1 C           6.9349   -4.4086   24.2129 C.ar    1  UNL1        0.0511
      2 C           6.4843   -3.5602   25.3650 C.ar    1  UNL1        0.0160
      3 C           6.7469   -4.0065   26.7728 C.ar    1  UNL1        0.0190
      4 C           7.4601   -5.3011   27.0285 C.ar    1  UNL1        0.0850
      5 C           7.9106   -6.1494   25.8763 C.ar    1  UNL1        0.1533
      6 C           7.6480   -5.7031   24.4686 C.ar    1  UNL1        0.0527
      7 C           5.8841   -2.6232   18.5818 C.2     1  UNL1        0.2419
      8 O           7.0316   -2.3110   17.6676 O.2     1  UNL1       -0.2734
      9 N           6.1468   -3.0696   19.9897 N.am    1  UNL1       -0.2749
     10 C           4.9994   -3.3817   20.9039 C.3     1  UNL1        0.1149
     11 C           5.2621   -3.8281   22.3117 C.3     1  UNL1        0.1123
     12 N           6.6722   -3.9622   22.8051 N.pl3   1  UNL1       -0.3040
     13 C           7.8197   -3.6500   21.8908 C.3     1  UNL1        0.1123
     14 C           7.5569   -3.2037   20.4831 C.3     1  UNL1        0.1149
     15 C           4.4740   -2.4891   18.0884 C.3     1  UNL1        0.1552
     16 C           3.7685   -0.1581   17.1837 C.3     1  UNL1        0.0862
     17 N           4.1665   -1.5825   16.9336 N.3     1  UNL1       -0.2886
     18 H           5.0020   -1.5565   16.3491 H       1  UNL1        0.1237
     19 N           7.7227   -5.7474   28.4363 N.pl3   1  UNL1       -0.2802
     20 H           7.7831   -6.7076   28.6451 H       1  UNL1        0.1552
     21 C           7.8933   -4.7307   29.5258 C.ar    1  UNL1        0.2208
     22 N           9.2655   -4.3952   30.0304 N.ar    1  UNL1       -0.2111
     23 C           9.4362   -3.3785   31.1200 C.ar    1  UNL1        0.1147
     24 C           8.2347   -2.6973   31.7050 C.ar    1  UNL1        0.0960
     25 CL          8.4053   -1.6806   32.7946 Cl      1  UNL1       -0.0790
     26 C           6.8624   -3.0328   31.2005 C.ar    1  UNL1        0.1138
     27 N           6.6918   -4.0496   30.1109 N.ar    1  UNL1       -0.2111
     28 C           5.6609   -2.3517   31.7855 C.ar    1  UNL1        0.1031
     29 C           4.9319   -2.7647   33.0298 C.ar    1  UNL1        0.1196
     30 N           3.7978   -1.8062   33.2423 N.ar    1  UNL1       -0.2248
     31 C           3.8259   -0.8008   32.1295 C.ar    1  UNL1        0.1479
     32 C           2.9518    0.3781   31.8197 C.ar    1  UNL1        0.0374
     33 C           3.2292    1.2200   30.6095 C.ar    1  UNL1        0.0046
     34 C           4.3806    0.8828   29.7092 C.ar    1  UNL1        0.0191
     35 C           5.2547   -0.2961   30.0190 C.ar    1  UNL1        0.0815
     36 N           4.9774   -1.1380   31.2291 N.ar    1  UNL1       -0.2874
     37 O           8.6238   -7.4440   26.1320 O.3     1  UNL1       -0.4701
     38 C           9.5326   -8.0189   25.0863 C.3     1  UNL1        0.2525
@<TRIPOS>BOND
     1    16    17    1
     2    17    15    1
     3    15     7    1
     4     7     8    2
     5     7     9   am
     6     9    10    1
     7    10    11    1
     8    11    12    1
     9    12     1    1
    10     1     2   ar
    11     2     3   ar
    12     3     4   ar
    13     4    19    1
    14    19    21    1
    15    21    22   ar
    16    22    23   ar
    17    23    24   ar
    18    24    25    1
    19    24    26   ar
    20    26    28    1
    21    28    29   ar
    22    29    30   ar
    23    30    31   ar
    24    31    32   ar
    25    32    33   ar
    26    33    34   ar
    27    34    35   ar
    28    35    36   ar
    29    26    27   ar
    30     4     5   ar
    31     5    37    1
    32    37    38    1
    33     5     6   ar
    34    12    13    1
    35    13    14    1
    36    14     9    1
    37     6     1   ar
    38    27    21   ar
    39    36    28   ar
    40    36    31   ar
    41    17    18    1
    42    19    20    1
@<TRIPOS>MOLECULE
*****
 38 42 0 0 0
SMALL
GASTEIGER

@<TRIPOS>ATOM
      1 C           2.2925    0.8764   31.3338 C.ar    1  UNL1        0.0511
      2 C           1.2405    1.8533   30.8993 C.ar    1  UNL1        0.0160
      3 C           0.6782    1.7817   29.5105 C.ar    1  UNL1        0.0190
      4 C           1.1680    0.7332   28.5562 C.ar    1  UNL1        0.0850
      5 C           2.2201   -0.2437   28.9907 C.ar    1  UNL1        0.1533
      6 C           2.7824   -0.1721   30.3795 C.ar    1  UNL1        0.0527
      7 C           4.5413    1.1632   36.8891 C.2     1  UNL1        0.2419
      8 O           5.5802    0.1750   37.3296 O.2     1  UNL1       -0.2734
      9 N           3.9790    1.0915   35.5002 N.am    1  UNL1       -0.2749
     10 C           2.9401    2.0797   35.0598 C.3     1  UNL1        0.1149
     11 C           2.3779    2.0080   33.6709 C.3     1  UNL1        0.1123
     12 N           2.8547    0.9480   32.7226 N.pl3   1  UNL1       -0.3040
     13 C           3.8937   -0.0401   33.1631 C.3     1  UNL1        0.1123
     14 C           4.4558    0.0316   34.5519 C.3     1  UNL1        0.1149
     15 C           4.0645    2.2231   37.8374 C.3     1  UNL1        0.1552
     16 C           2.0750    0.8827   38.8352 C.3     1  UNL1        0.0862
     17 N           3.2085    1.8494   39.0111 N.3     1  UNL1       -0.2886
     18 H           3.8304    1.4492   39.7135 H       1  UNL1        0.1237
     19 N           0.6058    0.6615   27.1674 N.pl3   1  UNL1       -0.2802
     20 H           0.5200   -0.2089   26.7153 H       1  UNL1        0.1552
     21 C           0.1743    1.9160   26.4674 C.ar    1  UNL1        0.2208
     22 N           1.1953    2.9362   26.0591 N.ar    1  UNL1       -0.2111
     23 C           0.7639    4.1907   25.3591 C.ar    1  UNL1        0.1147
     24 C          -0.6887    4.4251   25.0673 C.ar    1  UNL1        0.0960
     25 CL         -1.1202    5.6796   24.3673 Cl      1  UNL1       -0.0790
     26 C          -1.7098    3.4049   25.4756 C.ar    1  UNL1        0.1138
     27 N          -1.2783    2.1504   26.1756 N.ar    1  UNL1       -0.2111
     28 C          -3.1624    3.6392   25.1839 C.ar    1  UNL1        0.1031
     29 C          -4.2381    3.8813   26.2010 C.ar    1  UNL1        0.1196
     30 N          -5.5348    4.0643   25.4696 N.ar    1  UNL1       -0.2248
     31 C          -5.2606    3.9354   24.0005 C.ar    1  UNL1        0.1479
     32 C          -6.1565    4.0232   22.8007 C.ar    1  UNL1        0.0374
     33 C          -5.5862    3.8484   21.4243 C.ar    1  UNL1        0.0046
     34 C          -4.1200    3.5857   21.2478 C.ar    1  UNL1        0.0191
     35 C          -3.2240    3.4978   22.4476 C.ar    1  UNL1        0.0815
     36 N          -3.7943    3.6726   23.8240 N.ar    1  UNL1       -0.2874
     37 O           2.7099   -1.2922   28.0364 O.3     1  UNL1       -0.4701
     38 C           3.8790   -1.0047   27.1417 C.3     1  UNL1        0.2525
@<TRIPOS>BOND
     1    16    17    1
     2    17    15    1
     3    15     7    1
     4     7     8    2
     5     7     9   am
     6     9    10    1
     7    10    11    1
     8    11    12    1
     9    12     1    1
    10     1     2   ar
    11     2     3   ar
    12     3     4   ar
    13     4    19    1
    14    19    21    1
    15    21    22   ar
    16    22    23   ar
    17    23    24   ar
    18    24    25    1
    19    24    26   ar
    20    26    28    1
    21    28    29   ar
    22    29    30   ar
    23    30    31   ar
    24    31    32   ar
    25    32    33   ar
    26    33    34   ar
    27    34    35   ar
    28    35    36   ar
    29    26    27   ar
    30     4     5   ar
    31     5    37    1
    32    37    38    1
    33     5     6   ar
    34    12    13    1
    35    13    14    1
    36    14     9    1
    37     6     1   ar
    38    27    21   ar
    39    36    28   ar
    40    36    31   ar
    41    17    18    1
    42    19    20    1
@<TRIPOS>MOLECULE
*****
 38 42 0 0 0
SMALL
GASTEIGER

@<TRIPOS>ATOM
      1 C           2.7146    0.8860   31.8387 C.ar    1  UNL1        0.0511
      2 C           3.6613   -0.1641   31.3376 C.ar    1  UNL1        0.0160
      3 C           3.5447   -0.6688   29.9298 C.ar    1  UNL1        0.0190
      4 C           2.4815   -0.1234   29.0232 C.ar    1  UNL1        0.0850
      5 C           1.5348    0.9268   29.5243 C.ar    1  UNL1        0.1533
      6 C           1.6513    1.4315   30.9320 C.ar    1  UNL1        0.0527
      7 C           3.1812    2.9045   37.4697 C.2     1  UNL1        0.2419
      8 O           2.4579    4.1524   37.8815 O.2     1  UNL1       -0.2734
      9 N           3.0645    2.3998   36.0619 N.am    1  UNL1       -0.2749
     10 C           3.7878    1.1519   35.6502 C.3     1  UNL1        0.1149
     11 C           3.6711    0.6473   34.2424 C.3     1  UNL1        0.1123
     12 N           2.8312    1.3907   33.2464 N.pl3   1  UNL1       -0.3040
     13 C           2.1080    2.6386   33.6582 C.3     1  UNL1        0.1123
     14 C           2.2246    3.1432   35.0659 C.3     1  UNL1        0.1149
     15 C           4.0211    2.1611   38.4657 C.3     1  UNL1        0.1552
     16 C           1.9811    0.7114   39.1633 C.3     1  UNL1        0.0862
     17 N           3.4593    0.9659   39.1769 N.3     1  UNL1       -0.2886
     18 H           3.9034    0.1440   38.7676 H       1  UNL1        0.1237
     19 N           2.3649   -0.6280   27.6155 N.pl3   1  UNL1       -0.2802
     20 H           1.5317   -1.0569   27.3137 H       1  UNL1        0.1552
     21 C           3.5178   -0.4791   26.6675 C.ar    1  UNL1        0.2208
     22 N           4.4526    0.6864   26.8007 N.ar    1  UNL1       -0.2111
     23 C           5.6056    0.8353   25.8528 C.ar    1  UNL1        0.1147
     24 C           5.8237   -0.1812   24.7716 C.ar    1  UNL1        0.0960
     25 CL          6.9766   -0.0323   23.8236 Cl      1  UNL1       -0.0790
     26 C           4.8888   -1.3468   24.6383 C.ar    1  UNL1        0.1138
     27 N           3.7359   -1.4957   25.5863 N.ar    1  UNL1       -0.2111
     28 C           5.1069   -2.3633   23.5571 C.ar    1  UNL1        0.1031
     29 C           6.0254   -3.5469   23.6320 C.ar    1  UNL1        0.1196
     30 N           5.9310   -4.2899   22.3324 N.ar    1  UNL1       -0.2248
     31 C           4.9541   -3.5655   21.4543 C.ar    1  UNL1        0.1479
     32 C           4.4625   -3.8363   20.0633 C.ar    1  UNL1        0.0374
     33 C           3.4616   -2.9164   19.4291 C.ar    1  UNL1        0.0046
     34 C           2.9523   -1.7258   20.1861 C.ar    1  UNL1        0.0191
     35 C           3.4439   -1.4550   21.5771 C.ar    1  UNL1        0.0815
     36 N           4.4448   -2.3748   22.2113 N.ar    1  UNL1       -0.2874
     37 O           0.4716    1.4722   28.6177 O.3     1  UNL1       -0.4701
     38 C          -0.8726    0.8095   28.5544 C.3     1  UNL1        0.2525
@<TRIPOS>BOND
     1    16    17    1
     2    17    15    1
     3    15     7    1
     4     7     8    2
     5     7     9   am
     6     9    10    1
     7    10    11    1
     8    11    12    1
     9    12     1    1
    10     1     2   ar
    11     2     3   ar
    12     3     4   ar
    13     4    19    1
    14    19    21    1
    15    21    22   ar
    16    22    23   ar
    17    23    24   ar
    18    24    25    1
    19    24    26   ar
    20    26    28    1
    21    28    29   ar
    22    29    30   ar
    23    30    31   ar
    24    31    32   ar
    25    32    33   ar
    26    33    34   ar
    27    34    35   ar
    28    35    36   ar
    29    26    27   ar
    30     4     5   ar
    31     5    37    1
    32    37    38    1
    33     5     6   ar
    34    12    13    1
    35    13    14    1
    36    14     9    1
    37     6     1   ar
    38    27    21   ar
    39    36    28   ar
    40    36    31   ar
    41    17    18    1
    42    19    20    1
@<TRIPOS>MOLECULE
*****
 38 42 0 0 0
SMALL
GASTEIGER

@<TRIPOS>ATOM
      1 C           1.7640    0.4048   19.3251 C.ar    1  UNL1        0.0511
      2 C           1.8269   -0.5703   20.4632 C.ar    1  UNL1        0.0160
      3 C           2.8719   -1.6465   20.4719 C.ar    1  UNL1        0.0190
      4 C           3.8539   -1.7475   19.3426 C.ar    1  UNL1        0.0850
      5 C           3.7909   -0.7724   18.2045 C.ar    1  UNL1        0.1533
      6 C           2.7460    0.3038   18.1958 C.ar    1  UNL1        0.0527
      7 C          -2.4157    4.7093   19.2902 C.2     1  UNL1        0.2419
      8 O          -3.2782    4.9270   20.4980 O.2     1  UNL1       -0.2734
      9 N          -1.3707    3.6332   19.2989 N.am    1  UNL1       -0.2749
     10 C          -0.5083    3.4155   18.0912 C.3     1  UNL1        0.1149
     11 C           0.5367    2.3393   18.0999 C.3     1  UNL1        0.1123
     12 N           0.7191    1.4809   19.3164 N.pl3   1  UNL1       -0.3040
     13 C          -0.1434    1.6986   20.5242 C.3     1  UNL1        0.1123
     14 C          -1.1883    2.7748   20.5154 C.3     1  UNL1        0.1149
     15 C          -2.5981    5.5677   18.0737 C.3     1  UNL1        0.1552
     16 C          -4.2088    3.8402   16.9914 C.3     1  UNL1        0.0862
     17 N          -3.6680    5.2368   17.0758 N.3     1  UNL1       -0.2886
     18 H          -4.4594    5.8472   17.2793 H       1  UNL1        0.1237
     19 N           4.8988   -2.8236   19.3513 N.pl3   1  UNL1       -0.2802
     20 H           4.8515   -3.5609   18.7006 H       1  UNL1        0.1552
     21 C           6.0158   -2.7763   20.3513 C.ar    1  UNL1        0.2208
     22 N           6.6899   -1.4727   20.6616 N.ar    1  UNL1       -0.2111
     23 C           7.8069   -1.4253   21.6617 C.ar    1  UNL1        0.1147
     24 C           8.2497   -2.6815   22.3515 C.ar    1  UNL1        0.0960
     25 CL          9.3667   -2.6341   23.3516 Cl      1  UNL1       -0.0790
     26 C           7.5756   -3.9851   22.0412 C.ar    1  UNL1        0.1138
     27 N           6.4586   -4.0325   21.0412 N.ar    1  UNL1       -0.2111
     28 C           8.0184   -5.2413   22.7311 C.ar    1  UNL1        0.1031
     29 C           8.8668   -6.3239   22.1323 C.ar    1  UNL1        0.1196
     30 N           9.0633   -7.3871   23.1718 N.ar    1  UNL1       -0.2248
     31 C           8.3365   -6.9617   24.4131 C.ar    1  UNL1        0.1479
     32 C           8.1793   -7.6106   25.7563 C.ar    1  UNL1        0.0374
     33 C           7.3762   -6.9333   26.8271 C.ar    1  UNL1        0.0046
     34 C           6.7305   -5.6072   26.5546 C.ar    1  UNL1        0.0191
     35 C           6.8877   -4.9582   25.2114 C.ar    1  UNL1        0.0815
     36 N           7.6907   -5.6355   24.1407 N.ar    1  UNL1       -0.2874
     37 O           4.7730   -0.8734   17.0752 O.3     1  UNL1       -0.4701
     38 C           5.9993   -0.0097   17.0681 C.3     1  UNL1        0.2525
@<TRIPOS>BOND
     1    16    17    1
     2    17    15    1
     3    15     7    1
     4     7     8    2
     5     7     9   am
     6     9    10    1
     7    10    11    1
     8    11    12    1
     9    12     1    1
    10     1     2   ar
    11     2     3   ar
    12     3     4   ar
    13     4    19    1
    14    19    21    1
    15    21    22   ar
    16    22    23   ar
    17    23    24   ar
    18    24    25    1
    19    24    26   ar
    20    26    28    1
    21    28    29   ar
    22    29    30   ar
    23    30    31   ar
    24    31    32   ar
    25    32    33   ar
    26    33    34   ar
    27    34    35   ar
    28    35    36   ar
    29    26    27   ar
    30     4     5   ar
    31     5    37    1
    32    37    38    1
    33     5     6   ar
    34    12    13    1
    35    13    14    1
    36    14     9    1
    37     6     1   ar
    38    27    21   ar
    39    36    28   ar
    40    36    31   ar
    41    17    18    1
    42    19    20    1
@<TRIPOS>MOLECULE
*****
 38 42 0 0 0
SMALL
GASTEIGER

@<TRIPOS>ATOM
      1 C           6.5962   -2.4529   24.8025 C.ar    1  UNL1        0.0511
      2 C           6.8283   -1.0691   25.3329 C.ar    1  UNL1        0.0160
      3 C           7.3166   -0.8766   26.7382 C.ar    1  UNL1        0.0190
      4 C           7.5729   -2.0679   27.6129 C.ar    1  UNL1        0.0850
      5 C           7.3409   -3.4516   27.0824 C.ar    1  UNL1        0.1533
      6 C           6.8525   -3.6442   25.6772 C.ar    1  UNL1        0.0527
      7 C           4.6430   -3.2224   19.1818 C.2     1  UNL1        0.2419
      8 O           3.4867   -4.1380   18.9083 O.2     1  UNL1       -0.2734
      9 N           5.1314   -3.0300   20.5870 N.am    1  UNL1       -0.2749
     10 C           6.2876   -2.1145   20.8604 C.3     1  UNL1        0.1149
     11 C           6.7759   -1.9221   22.2657 C.3     1  UNL1        0.1123
     12 N           6.1079   -2.6453   23.3974 N.pl3   1  UNL1       -0.3040
     13 C           4.9516   -3.5608   23.1239 C.3     1  UNL1        0.1123
     14 C           4.4633   -3.7532   21.7187 C.3     1  UNL1        0.1149
     15 C           5.3110   -2.4993   18.0501 C.3     1  UNL1        0.1552
     16 C           3.7156   -0.5506   17.4119 C.3     1  UNL1        0.0862
     17 N           4.4829   -1.7805   17.0265 N.3     1  UNL1       -0.2886
     18 H           5.1155   -1.5090   16.2738 H       1  UNL1        0.1237
     19 N           8.0613   -1.8755   29.0180 N.pl3   1  UNL1       -0.2802
     20 H           9.0079   -1.6631   29.1855 H       1  UNL1        0.1552
     21 C           7.1072   -2.0065   30.1681 C.ar    1  UNL1        0.2208
     22 N           7.2189   -3.1717   31.1061 N.ar    1  UNL1       -0.2111
     23 C           6.2648   -3.3029   32.2562 C.ar    1  UNL1        0.1147
     24 C           5.1991   -2.2688   32.4682 C.ar    1  UNL1        0.0960
     25 CL          4.2451   -2.3999   33.6183 Cl      1  UNL1       -0.0790
     26 C           5.0875   -1.1036   31.5301 C.ar    1  UNL1        0.1138
     27 N           6.0415   -0.9725   30.3801 N.ar    1  UNL1       -0.2111
     28 C           4.0218   -0.0695   31.7422 C.ar    1  UNL1        0.1031
     29 C           3.9740    0.9313   32.8586 C.ar    1  UNL1        0.1196
     30 N           2.7395    1.7647   32.6815 N.ar    1  UNL1       -0.2248
     31 C           2.0243    1.2790   31.4556 C.ar    1  UNL1        0.1479
     32 C           0.7538    1.7225   30.7930 C.ar    1  UNL1        0.0374
     33 C           0.2758    1.0324   29.5498 C.ar    1  UNL1        0.0046
     34 C           1.0683   -0.1012   28.9694 C.ar    1  UNL1        0.0191
     35 C           2.3388   -0.5447   29.6320 C.ar    1  UNL1        0.0815
     36 N           2.8168    0.1454   30.8751 N.ar    1  UNL1       -0.2874
     37 O           7.5972   -4.6429   27.9571 O.3     1  UNL1       -0.4701
     38 C           6.4454   -5.4151   28.5291 C.3     1  UNL1        0.2525
@<TRIPOS>BOND
     1    16    17    1
     2    17    15    1
     3    15     7    1
     4     7     8    2
     5     7     9   am
     6     9    10    1
     7    10    11    1
     8    11    12    1
     9    12     1    1
    10     1     2   ar
    11     2     3   ar
    12     3     4   ar
    13     4    19    1
    14    19    21    1
    15    21    22   ar
    16    22    23   ar
    17    23    24   ar
    18    24    25    1
    19    24    26   ar
    20    26    28    1
    21    28    29   ar
    22    29    30   ar
    23    30    31   ar
    24    31    32   ar
    25    32    33   ar
    26    33    34   ar
    27    34    35   ar
    28    35    36   ar
    29    26    27   ar
    30     4     5   ar
    31     5    37    1
    32    37    38    1
    33     5     6   ar
    34    12    13    1
    35    13    14    1
    36    14     9    1
    37     6     1   ar
    38    27    21   ar
    39    36    28   ar
    40    36    31   ar
    41    17    18    1
    42    19    20    1
@<TRIPOS>MOLECULE
*****
 38 42 0 0 0
SMALL
GASTEIGER

@<TRIPOS>ATOM
      1 C           3.5089    0.7350   27.6266 C.ar    1  UNL1        0.0511
      2 C           4.5467    0.9998   26.5764 C.ar    1  UNL1        0.0160
      3 C           4.1939    1.8019   25.3588 C.ar    1  UNL1        0.0190
      4 C           2.8034    2.3389   25.1914 C.ar    1  UNL1        0.0850
      5 C           1.7657    2.0740   26.2417 C.ar    1  UNL1        0.1533
      6 C           2.1184    1.2720   27.4592 C.ar    1  UNL1        0.0527
      7 C           4.9204   -2.4730   32.4966 C.2     1  UNL1        0.2419
      8 O           3.9691   -2.5364   33.6546 O.2     1  UNL1       -0.2734
      9 N           4.5676   -1.6710   31.2790 N.am    1  UNL1       -0.2749
     10 C           5.5189   -1.6076   30.1211 C.3     1  UNL1        0.1149
     11 C           5.1660   -0.8056   28.9035 C.3     1  UNL1        0.1123
     12 N           3.8617   -0.0670   28.8441 N.pl3   1  UNL1       -0.3040
     13 C           2.9105   -0.1304   30.0021 C.3     1  UNL1        0.1123
     14 C           3.2634   -0.9324   31.2195 C.3     1  UNL1        0.1149
     15 C           6.2246   -3.2116   32.5560 C.3     1  UNL1        0.1552
     16 C           7.0499   -5.4257   31.4759 C.3     1  UNL1        0.0862
     17 N           6.2399   -4.7110   32.5166 N.3     1  UNL1       -0.2886
     18 H           6.5827   -5.0259   33.4242 H       1  UNL1        0.1237
     19 N           2.4506    3.1409   23.9739 N.pl3   1  UNL1       -0.2802
     20 H           2.4515    4.1245   24.0151 H       1  UNL1        0.1552
     21 C           2.0963    2.4441   22.6937 C.ar    1  UNL1        0.2208
     22 N           0.6676    2.3889   22.2403 N.ar    1  UNL1       -0.2111
     23 C           0.3132    1.6921   20.9601 C.ar    1  UNL1        0.1147
     24 C           1.3878    1.0505   20.1332 C.ar    1  UNL1        0.0960
     25 CL          1.0336    0.3537   18.8530 Cl      1  UNL1       -0.0790
     26 C           2.8166    1.1057   20.5866 C.ar    1  UNL1        0.1138
     27 N           3.1709    1.8025   21.8668 N.ar    1  UNL1       -0.2111
     28 C           3.8912    0.4641   19.7597 C.ar    1  UNL1        0.1031
     29 C           4.9913    1.1805   19.0340 C.ar    1  UNL1        0.1196
     30 N           5.8343    0.1527   18.3392 N.ar    1  UNL1       -0.2248
     31 C           5.2552   -1.1989   18.6354 C.ar    1  UNL1        0.1479
     32 C           5.6663   -2.5801   18.2191 C.ar    1  UNL1        0.0374
     33 C           4.8764   -3.7689   18.6809 C.ar    1  UNL1        0.0046
     34 C           3.6755   -3.5764   19.5588 C.ar    1  UNL1        0.0191
     35 C           3.2644   -2.1951   19.9751 C.ar    1  UNL1        0.0815
     36 N           4.0543   -1.0064   19.5134 N.ar    1  UNL1       -0.2874
     37 O           0.3752    2.6111   26.0743 O.3     1  UNL1       -0.4701
     38 C          -0.7097    2.1922   27.0217 C.3     1  UNL1        0.2525
@<TRIPOS>BOND
     1    16    17    1
     2    17    15    1
     3    15     7    1
     4     7     8    2
     5     7     9   am
     6     9    10    1
     7    10    11    1
     8    11    12    1
     9    12     1    1
    10     1     2   ar
    11     2     3   ar
    12     3     4   ar
    13     4    19    1
    14    19    21    1
    15    21    22   ar
    16    22    23   ar
    17    23    24   ar
    18    24    25    1
    19    24    26   ar
    20    26    28    1
    21    28    29   ar
    22    29    30   ar
    23    30    31   ar
    24    31    32   ar
    25    32    33   ar
    26    33    34   ar
    27    34    35   ar
    28    35    36   ar
    29    26    27   ar
    30     4     5   ar
    31     5    37    1
    32    37    38    1
    33     5     6   ar
    34    12    13    1
    35    13    14    1
    36    14     9    1
    37     6     1   ar
    38    27    21   ar
    39    36    28   ar
    40    36    31   ar
    41    17    18    1
    42    19    20    1
@<TRIPOS>MOLECULE
*****
 38 42 0 0 0
SMALL
GASTEIGER

@<TRIPOS>ATOM
      1 C           1.6104    0.4969   19.2294 C.ar    1  UNL1        0.0511
      2 C           1.6064   -0.6627   20.1808 C.ar    1  UNL1        0.0160
      3 C           2.5970   -1.7763   20.0102 C.ar    1  UNL1        0.0190
      4 C           3.5914   -1.7301   18.8882 C.ar    1  UNL1        0.0850
      5 C           3.5953   -0.5703   17.9368 C.ar    1  UNL1        0.1533
      6 C           2.6048    0.5431   18.1074 C.ar    1  UNL1        0.0527
      7 C          -2.3517    4.9506   19.9123 C.2     1  UNL1        0.2419
      8 O          -2.6494    5.8719   18.7666 O.2     1  UNL1       -0.2734
      9 N          -1.3612    3.8371   19.7416 N.am    1  UNL1       -0.2749
     10 C          -1.0636    2.9159   20.8873 C.3     1  UNL1        0.1149
     11 C          -0.0730    1.8024   20.7165 C.3     1  UNL1        0.1123
     12 N           0.6199    1.6103   19.4001 N.pl3   1  UNL1       -0.3040
     13 C           0.3223    2.5317   18.2544 C.3     1  UNL1        0.1123
     14 C          -0.6683    3.6450   18.4252 C.3     1  UNL1        0.1149
     15 C          -3.0446    5.1427   21.2287 C.3     1  UNL1        0.1552
     16 C          -5.2949    5.3908   22.5034 C.3     1  UNL1        0.0862
     17 N          -4.5044    4.8242   21.3615 N.3     1  UNL1       -0.2886
     18 H          -4.9548    5.1443   20.5041 H       1  UNL1        0.1237
     19 N           4.5819   -2.8435   18.7175 N.pl3   1  UNL1       -0.2802
     20 H           4.4205   -3.5477   18.0488 H       1  UNL1        0.1552
     21 C           5.8183   -2.8839   19.5659 C.ar    1  UNL1        0.2208
     22 N           7.1382   -2.4667   18.9882 N.ar    1  UNL1       -0.2111
     23 C           8.3747   -2.5071   19.8365 C.ar    1  UNL1        0.1147
     24 C           8.2912   -2.9647   21.2625 C.ar    1  UNL1        0.0960
     25 CL          9.5276   -3.0051   22.1109 Cl      1  UNL1       -0.0790
     26 C           6.9712   -3.3819   21.8403 C.ar    1  UNL1        0.1138
     27 N           5.7348   -3.3415   20.9919 N.ar    1  UNL1       -0.2111
     28 C           6.8877   -3.8395   23.2663 C.ar    1  UNL1        0.1031
     29 C           6.2568   -3.0849   24.3989 C.ar    1  UNL1        0.1196
     30 N           6.3996   -3.9110   25.6427 N.ar    1  UNL1       -0.2248
     31 C           7.1187   -5.1761   25.2789 C.ar    1  UNL1        0.1479
     32 C           7.5378   -6.3627   26.0952 C.ar    1  UNL1        0.0374
     33 C           8.2586   -7.5051   25.4428 C.ar    1  UNL1        0.0046
     34 C           8.5602   -7.4608   23.9741 C.ar    1  UNL1        0.0191
     35 C           8.1411   -6.2742   23.1578 C.ar    1  UNL1        0.0815
     36 N           7.4204   -5.1319   23.8101 N.ar    1  UNL1       -0.2874
     37 O           4.5898   -0.5241   16.8148 O.3     1  UNL1       -0.4701
     38 C           5.8474    0.2805   16.9599 C.3     1  UNL1        0.2525
@<TRIPOS>BOND
     1    16    17    1
     2    17    15    1
     3    15     7    1
     4     7     8    2
     5     7     9   am
     6     9    10    1
     7    10    11    1
     8    11    12    1
     9    12     1    1
    10     1     2   ar
    11     2     3   ar
    12     3     4   ar
    13     4    19    1
    14    19    21    1
    15    21    22   ar
    16    22    23   ar
    17    23    24   ar
    18    24    25    1
    19    24    26   ar
    20    26    28    1
    21    28    29   ar
    22    29    30   ar
    23    30    31   ar
    24    31    32   ar
    25    32    33   ar
    26    33    34   ar
    27    34    35   ar
    28    35    36   ar
    29    26    27   ar
    30     4     5   ar
    31     5    37    1
    32    37    38    1
    33     5     6   ar
    34    12    13    1
    35    13    14    1
    36    14     9    1
    37     6     1   ar
    38    27    21   ar
    39    36    28   ar
    40    36    31   ar
    41    17    18    1
    42    19    20    1
@<TRIPOS>MOLECULE
*****
 38 42 0 0 0
SMALL
GASTEIGER

@<TRIPOS>ATOM
      1 C           6.6402   -3.4655   28.0329 C.ar    1  UNL1        0.0511
      2 C           7.3724   -2.6730   26.9908 C.ar    1  UNL1        0.0160
      3 C           7.8818   -3.3510   25.7535 C.ar    1  UNL1        0.0190
      4 C           7.6589   -4.8214   25.5582 C.ar    1  UNL1        0.0850
      5 C           6.9267   -5.6139   26.6003 C.ar    1  UNL1        0.1533
      6 C           6.4173   -4.9359   27.8376 C.ar    1  UNL1        0.0527
      7 C           4.6029   -0.7534   32.9820 C.2     1  UNL1        0.2419
      8 O           3.7813    0.4965   32.8682 O.2     1  UNL1       -0.2734
      9 N           5.1123   -1.4315   31.7447 N.am    1  UNL1       -0.2749
     10 C           5.9338   -2.6812   31.8586 C.3     1  UNL1        0.1149
     11 C           6.4432   -3.3592   30.6212 C.3     1  UNL1        0.1123
     12 N           6.1309   -2.7874   29.2701 N.pl3   1  UNL1       -0.3040
     13 C           5.3093   -1.5376   29.1563 C.3     1  UNL1        0.1123
     14 C           4.8000   -0.8596   30.3936 C.3     1  UNL1        0.1149
     15 C           4.9152   -1.3252   34.3331 C.3     1  UNL1        0.1552
     16 C           4.7087   -0.0424   36.5830 C.3     1  UNL1        0.0862
     17 N           5.5234   -0.4556   35.3932 N.3     1  UNL1       -0.2886
     18 H           6.3371   -0.9548   35.7526 H       1  UNL1        0.1237
     19 N           8.1683   -5.4995   24.3210 N.pl3   1  UNL1       -0.2802
     20 H           8.5158   -6.4192   24.3713 H       1  UNL1        0.1552
     21 C           8.1480   -4.7762   23.0071 C.ar    1  UNL1        0.2208
     22 N           9.4360   -4.3684   22.3554 N.ar    1  UNL1       -0.2111
     23 C           9.4158   -3.6451   21.0415 C.ar    1  UNL1        0.1147
     24 C           8.1075   -3.3295   20.3792 C.ar    1  UNL1        0.0960
     25 CL          8.0872   -2.6062   19.0653 Cl      1  UNL1       -0.0790
     26 C           6.8194   -3.7372   21.0309 C.ar    1  UNL1        0.1138
     27 N           6.8396   -4.4606   22.3448 N.ar    1  UNL1       -0.2111
     28 C           5.5110   -3.4216   20.3686 C.ar    1  UNL1        0.1031
     29 C           4.9096   -4.1585   19.2086 C.ar    1  UNL1        0.1196
     30 N           3.6013   -3.5061   18.8730 N.ar    1  UNL1       -0.2248
     31 C           3.3941   -2.3660   19.8256 C.ar    1  UNL1        0.1479
     32 C           2.2832   -1.3687   19.9708 C.ar    1  UNL1        0.0374
     33 C           2.3525   -0.3191   21.0403 C.ar    1  UNL1        0.0046
     34 C           3.5328   -0.2670   21.9645 C.ar    1  UNL1        0.0191
     35 C           4.6437   -1.2644   21.8193 C.ar    1  UNL1        0.0815
     36 N           4.5744   -2.3139   20.7499 N.ar    1  UNL1       -0.2874
     37 O           6.7038   -7.0843   26.4051 O.3     1  UNL1       -0.4701
     38 C           7.7723   -8.0629   26.7934 C.3     1  UNL1        0.2525
@<TRIPOS>BOND
     1    16    17    1
     2    17    15    1
     3    15     7    1
     4     7     8    2
     5     7     9   am
     6     9    10    1
     7    10    11    1
     8    11    12    1
     9    12     1    1
    10     1     2   ar
    11     2     3   ar
    12     3     4   ar
    13     4    19    1
    14    19    21    1
    15    21    22   ar
    16    22    23   ar
    17    23    24   ar
    18    24    25    1
    19    24    26   ar
    20    26    28    1
    21    28    29   ar
    22    29    30   ar
    23    30    31   ar
    24    31    32   ar
    25    32    33   ar
    26    33    34   ar
    27    34    35   ar
    28    35    36   ar
    29    26    27   ar
    30     4     5   ar
    31     5    37    1
    32    37    38    1
    33     5     6   ar
    34    12    13    1
    35    13    14    1
    36    14     9    1
    37     6     1   ar
    38    27    21   ar
    39    36    28   ar
    40    36    31   ar
    41    17    18    1
    42    19    20    1
