@<TRIPOS>MOLECULE
*****
 46 51 0 0 0
SMALL
GASTEIGER

@<TRIPOS>ATOM
      1 C          -2.6590    4.2267   22.1152 C.ar    1  UNL1        0.1348
      2 C          -2.4301    4.9867   23.3880 C.ar    1  UNL1        0.0346
      3 C          -1.2665    4.6409   24.2692 C.ar    1  UNL1        0.0065
      4 C          -0.3318    3.5350   23.8776 C.ar    1  UNL1        0.0432
      5 C          -0.5608    2.7750   22.6048 C.ar    1  UNL1        0.1256
      6 N          -1.7243    3.1209   21.7236 N.ar    1  UNL1       -0.2222
      7 C           0.8318    3.1892   24.7587 C.ar    1  UNL1        0.0851
      8 C           2.2362    3.6922   24.6024 C.ar    1  UNL1        0.1035
      9 N           3.0677    3.0935   25.6980 N.ar    1  UNL1       -0.2263
     10 C           2.1771    2.2204   26.5314 C.ar    1  UNL1        0.1486
     11 C           2.4458    1.3791   27.7438 C.ar    1  UNL1        0.0488
     12 C           1.3328    0.5970   28.3758 C.ar    1  UNL1        0.0622
     13 CL          1.6015   -0.2442   29.5882 Cl      1  UNL1       -0.0821
     14 C          -0.0492    0.6561   27.7953 C.ar    1  UNL1        0.0305
     15 C          -0.3179    1.4974   26.5828 C.ar    1  UNL1        0.0823
     16 N           0.7952    2.2795   25.9508 N.ar    1  UNL1       -0.2887
     17 C           2.7237    4.6295   23.5376 C.ar    1  UNL1        0.0723
     18 C           2.3703    6.0859   23.6012 C.ar    1  UNL1        0.0078
     19 C           2.8578    7.0232   22.5363 C.ar    1  UNL1        0.0209
     20 C           3.6986    6.5040   21.4079 C.ar    1  UNL1        0.1021
     21 N           4.0520    5.0477   21.3443 N.ar    1  UNL1       -0.2101
     22 C           3.5645    4.1104   22.4091 C.ar    1  UNL1        0.2264
     23 O           3.9179    2.6540   22.3454 O.3     1  UNL1       -0.4561
     24 C           5.2354    2.1779   22.8816 C.3     1  UNL1        0.2542
     25 C          -5.0383    3.6941   21.2178 C.2     1  UNL1        0.2414
     26 O          -5.0904    2.4696   22.0827 O.2     1  UNL1       -0.2733
     27 N          -3.8226    4.5726   21.2341 N.am    1  UNL1       -0.2682
     28 H          -3.7884    5.3762   20.6664 H       1  UNL1        0.1563
     29 C          -6.2019    4.0399   20.3367 C.3     1  UNL1        0.1319
     30 C          -6.2532    3.5291   18.9272 C.3     1  UNL1        0.0270
     31 C          -7.3399    5.2827   22.3141 C.3     1  UNL1        0.0862
     32 N          -7.3141    4.8965   20.8649 N.3     1  UNL1       -0.2902
     33 H          -7.2972    5.7644   20.3292 H       1  UNL1        0.1237
     34 C           0.3740    1.6691   22.2131 C.1     1  UNL1       -0.0404
     35 C           1.3086    0.5632   21.8215 C.1     1  UNL1       -0.0583
     36 C           2.2433   -0.5427   21.4299 C.ar    1  UNL1        0.0420
     37 C           2.1908   -1.1134   20.0437 C.ar    1  UNL1        0.0083
     38 C           3.1255   -2.2193   19.6521 C.ar    1  UNL1        0.0018
     39 C           4.1126   -2.7545   20.6467 C.ar    1  UNL1        0.0137
     40 C           5.0473   -3.8604   20.2550 C.ar    1  UNL1        0.0594
     41 C           4.9949   -4.4311   18.8688 C.3     1  UNL1        0.0521
     42 N           6.0345   -4.3956   21.2496 N.ar    1  UNL1       -0.2481
     43 C           6.0869   -3.8248   22.6358 C.ar    1  UNL1        0.0984
     44 C           5.1522   -2.7190   23.0274 C.ar    1  UNL1        0.0207
     45 C           4.1651   -2.1838   22.0328 C.ar    1  UNL1        0.0033
     46 C           3.2304   -1.0779   22.4244 C.ar    1  UNL1        0.0083
@<TRIPOS>BOND
     1    31    32    1
     2    32    29    1
     3    29    30    1
     4    29    25    1
     5    25    26    2
     6    25    27   am
     7    27     1    1
     8     1     2   ar
     9     2     3   ar
    10     3     4   ar
    11     4     7    1
    12     7     8   ar
    13     8    17    1
    14    17    18   ar
    15    18    19   ar
    16    19    20   ar
    17    20    21   ar
    18    21    22   ar
    19    22    23    1
    20    23    24    1
    21     8     9   ar
    22     9    10   ar
    23    10    11   ar
    24    11    12   ar
    25    12    13    1
    26    12    14   ar
    27    14    15   ar
    28    15    16   ar
    29     4     5   ar
    30     5    34    1
    31    34    35    3
    32    35    36    1
    33    36    37   ar
    34    37    38   ar
    35    38    39   ar
    36    39    40   ar
    37    40    41    1
    38    40    42   ar
    39    42    43   ar
    40    43    44   ar
    41    44    45   ar
    42    45    46   ar
    43     5     6   ar
    44     6     1   ar
    45    16     7   ar
    46    46    36   ar
    47    22    17   ar
    48    16    10   ar
    49    45    39   ar
    50    32    33    1
    51    27    28    1
@<TRIPOS>MOLECULE
*****
 46 51 0 0 0
SMALL
GASTEIGER

@<TRIPOS>ATOM
      1 C          -2.4475    4.5730   24.6431 C.ar    1  UNL1        0.1348
      2 C          -1.8883    5.2799   25.8420 C.ar    1  UNL1        0.0346
      3 C          -0.5264    4.9199   26.3574 C.ar    1  UNL1        0.0065
      4 C           0.2763    3.8530   25.6739 C.ar    1  UNL1        0.0432
      5 C          -0.2829    3.1461   24.4749 C.ar    1  UNL1        0.1256
      6 N          -1.6448    3.5061   23.9595 N.ar    1  UNL1       -0.2222
      7 C           1.6382    3.4930   26.1893 C.ar    1  UNL1        0.0851
      8 C           1.9330    2.5481   27.3164 C.ar    1  UNL1        0.1035
      9 N           3.4214    2.4858   27.4918 N.ar    1  UNL1       -0.2263
     10 C           4.0465    3.3921   26.4731 C.ar    1  UNL1        0.1486
     11 C           5.4769    3.7311   26.1745 C.ar    1  UNL1        0.0488
     12 C           5.8052    4.6925   25.0709 C.ar    1  UNL1        0.0622
     13 CL          7.2355    5.0314   24.7723 Cl      1  UNL1       -0.0821
     14 C           4.7031    5.3150   24.2658 C.ar    1  UNL1        0.0305
     15 C           3.2728    4.9760   24.5645 C.ar    1  UNL1        0.0823
     16 N           2.9444    4.0146   25.6681 N.ar    1  UNL1       -0.2887
     17 C           0.9176    1.7973   28.1259 C.ar    1  UNL1        0.0723
     18 C           0.0489    0.7657   27.4693 C.ar    1  UNL1        0.0078
     19 C          -0.9665    0.0149   28.2789 C.ar    1  UNL1        0.0209
     20 C          -1.1131    0.2958   29.7451 C.ar    1  UNL1        0.1021
     21 N          -0.2444    1.3274   30.4016 N.ar    1  UNL1       -0.2101
     22 C           0.7709    2.0781   29.5920 C.ar    1  UNL1        0.2264
     23 O           1.6396    3.1098   30.2487 O.3     1  UNL1       -0.4561
     24 C           1.1514    4.5210   30.3905 C.3     1  UNL1        0.2542
     25 C          -5.0347    4.4466   24.8430 C.2     1  UNL1        0.2414
     26 O          -4.8983    3.6002   26.0739 O.2     1  UNL1       -0.2733
     27 N          -3.8094    4.9330   24.1276 N.am    1  UNL1       -0.2682
     28 H          -3.8989    5.4886   23.3198 H       1  UNL1        0.1563
     29 C          -6.3966    4.8067   24.3276 C.3     1  UNL1        0.1319
     30 C          -7.1629    5.9326   24.9563 C.3     1  UNL1        0.0270
     31 C          -6.8204    4.5371   21.7786 C.3     1  UNL1        0.0862
     32 N          -6.9922    4.0408   23.1836 N.3     1  UNL1       -0.2902
     33 H          -6.5909    3.1036   23.2161 H       1  UNL1        0.1237
     34 C           0.5198    2.0791   23.7913 C.1     1  UNL1       -0.0404
     35 C           1.3226    1.0122   23.1077 C.1     1  UNL1       -0.0583
     36 C           2.1253   -0.0548   22.4241 C.ar    1  UNL1        0.0420
     37 C           1.9277   -0.3205   20.9611 C.ar    1  UNL1        0.0083
     38 C           2.7304   -1.3874   20.2776 C.ar    1  UNL1        0.0018
     39 C           3.7307   -2.1887   21.0570 C.ar    1  UNL1        0.0137
     40 C           4.5334   -3.2557   20.3734 C.ar    1  UNL1        0.0594
     41 C           4.3358   -3.5213   18.9104 C.3     1  UNL1        0.0521
     42 N           5.5336   -4.0569   21.1528 N.ar    1  UNL1       -0.2481
     43 C           5.7311   -3.7912   22.6159 C.ar    1  UNL1        0.0984
     44 C           4.9284   -2.7242   23.2994 C.ar    1  UNL1        0.0207
     45 C           3.9282   -1.9230   22.5200 C.ar    1  UNL1        0.0033
     46 C           3.1255   -0.8561   23.2035 C.ar    1  UNL1        0.0083
@<TRIPOS>BOND
     1    31    32    1
     2    32    29    1
     3    29    30    1
     4    29    25    1
     5    25    26    2
     6    25    27   am
     7    27     1    1
     8     1     2   ar
     9     2     3   ar
    10     3     4   ar
    11     4     7    1
    12     7     8   ar
    13     8    17    1
    14    17    18   ar
    15    18    19   ar
    16    19    20   ar
    17    20    21   ar
    18    21    22   ar
    19    22    23    1
    20    23    24    1
    21     8     9   ar
    22     9    10   ar
    23    10    11   ar
    24    11    12   ar
    25    12    13    1
    26    12    14   ar
    27    14    15   ar
    28    15    16   ar
    29     4     5   ar
    30     5    34    1
    31    34    35    3
    32    35    36    1
    33    36    37   ar
    34    37    38   ar
    35    38    39   ar
    36    39    40   ar
    37    40    41    1
    38    40    42   ar
    39    42    43   ar
    40    43    44   ar
    41    44    45   ar
    42    45    46   ar
    43     5     6   ar
    44     6     1   ar
    45    16     7   ar
    46    46    36   ar
    47    22    17   ar
    48    16    10   ar
    49    45    39   ar
    50    32    33    1
    51    27    28    1
@<TRIPOS>MOLECULE
*****
 46 51 0 0 0
SMALL
GASTEIGER

@<TRIPOS>ATOM
      1 C           4.2420   -0.8989   30.7066 C.ar    1  UNL1        0.1348
      2 C           5.5410   -1.4775   31.1837 C.ar    1  UNL1        0.0346
      3 C           6.5228   -2.0328   30.1949 C.ar    1  UNL1        0.0065
      4 C           6.2056   -2.0095   28.7290 C.ar    1  UNL1        0.0432
      5 C           4.9065   -1.4309   28.2520 C.ar    1  UNL1        0.1256
      6 N           3.9247   -0.8756   29.2408 N.ar    1  UNL1       -0.2222
      7 C           7.1874   -2.5647   27.7402 C.ar    1  UNL1        0.0851
      8 C           8.2614   -1.7910   27.0346 C.ar    1  UNL1        0.1035
      9 N           9.0054   -2.7393   26.1417 N.ar    1  UNL1       -0.2263
     10 C           8.3911   -4.0991   26.2954 C.ar    1  UNL1        0.1486
     11 C           8.7097   -5.4217   25.6635 C.ar    1  UNL1        0.0488
     12 C           7.9048   -6.6363   26.0195 C.ar    1  UNL1        0.0622
     13 CL          8.2234   -7.9588   25.3875 Cl      1  UNL1       -0.0821
     14 C           6.7812   -6.5284   27.0074 C.ar    1  UNL1        0.0305
     15 C           6.4626   -5.2059   27.6393 C.ar    1  UNL1        0.0823
     16 N           7.2676   -3.9912   27.2834 N.ar    1  UNL1       -0.2887
     17 C           8.5422   -0.3262   27.1940 C.ar    1  UNL1        0.0723
     18 C           9.2549    0.1723   28.4163 C.ar    1  UNL1        0.0078
     19 C           9.5357    1.6371   28.5756 C.ar    1  UNL1        0.0209
     20 C           9.1039    2.6035   27.5128 C.ar    1  UNL1        0.1021
     21 N           8.3913    2.1051   26.2906 N.ar    1  UNL1       -0.2101
     22 C           8.1105    0.6402   26.1312 C.ar    1  UNL1        0.2264
     23 O           7.3978    0.1418   24.9090 O.3     1  UNL1       -0.4561
     24 C           7.6956    0.7460   23.5687 C.3     1  UNL1        0.2542
     25 C           3.3599    1.0893   32.1275 C.2     1  UNL1        0.2414
     26 O           4.4414    1.9670   31.5707 O.2     1  UNL1       -0.2733
     27 N           3.2602   -0.3437   31.6954 N.am    1  UNL1       -0.2682
     28 H           2.5503   -0.9197   32.0608 H       1  UNL1        0.1563
     29 C           2.3780    1.6445   33.1163 C.3     1  UNL1        0.1319
     30 C           2.8452    2.0789   34.4739 C.3     1  UNL1        0.0270
     31 C           0.5262    2.5596   31.5405 C.3     1  UNL1        0.0862
     32 N           0.9292    1.7654   32.7475 N.3     1  UNL1       -0.2902
     33 H           0.5813    0.8171   32.6056 H       1  UNL1        0.1237
     34 C           4.5892   -1.4076   26.7861 C.1     1  UNL1       -0.0404
     35 C           4.2718   -1.3842   25.3202 C.1     1  UNL1       -0.0583
     36 C           3.9545   -1.3609   23.8543 C.ar    1  UNL1        0.0420
     37 C           3.1381   -0.2405   23.2814 C.ar    1  UNL1        0.0083
     38 C           2.8208   -0.2172   21.8156 C.ar    1  UNL1        0.0018
     39 C           3.3200   -1.3143   20.9226 C.ar    1  UNL1        0.0137
     40 C           3.0026   -1.2910   19.4567 C.ar    1  UNL1        0.0594
     41 C           2.1862   -0.1706   18.8838 C.3     1  UNL1        0.0521
     42 N           3.5018   -2.3880   18.5638 N.ar    1  UNL1       -0.2481
     43 C           4.3182   -3.5084   19.1368 C.ar    1  UNL1        0.0984
     44 C           4.6355   -3.5317   20.6026 C.ar    1  UNL1        0.0207
     45 C           4.1364   -2.4346   21.4955 C.ar    1  UNL1        0.0033
     46 C           4.4536   -2.4579   22.9614 C.ar    1  UNL1        0.0083
@<TRIPOS>BOND
     1    31    32    1
     2    32    29    1
     3    29    30    1
     4    29    25    1
     5    25    26    2
     6    25    27   am
     7    27     1    1
     8     1     2   ar
     9     2     3   ar
    10     3     4   ar
    11     4     7    1
    12     7     8   ar
    13     8    17    1
    14    17    18   ar
    15    18    19   ar
    16    19    20   ar
    17    20    21   ar
    18    21    22   ar
    19    22    23    1
    20    23    24    1
    21     8     9   ar
    22     9    10   ar
    23    10    11   ar
    24    11    12   ar
    25    12    13    1
    26    12    14   ar
    27    14    15   ar
    28    15    16   ar
    29     4     5   ar
    30     5    34    1
    31    34    35    3
    32    35    36    1
    33    36    37   ar
    34    37    38   ar
    35    38    39   ar
    36    39    40   ar
    37    40    41    1
    38    40    42   ar
    39    42    43   ar
    40    43    44   ar
    41    44    45   ar
    42    45    46   ar
    43     5     6   ar
    44     6     1   ar
    45    16     7   ar
    46    46    36   ar
    47    22    17   ar
    48    16    10   ar
    49    45    39   ar
    50    32    33    1
    51    27    28    1
@<TRIPOS>MOLECULE
*****
 46 51 0 0 0
SMALL
GASTEIGER

@<TRIPOS>ATOM
      1 C          -2.1613    4.7354   24.6935 C.ar    1  UNL1        0.1348
      2 C          -1.4361    5.6340   25.6508 C.ar    1  UNL1        0.0346
      3 C           0.0165    5.4015   25.9438 C.ar    1  UNL1        0.0065
      4 C           0.7440    4.2705   25.2794 C.ar    1  UNL1        0.0432
      5 C           0.0188    3.3719   24.3221 C.ar    1  UNL1        0.1256
      6 N          -1.4338    3.6043   24.0291 N.ar    1  UNL1       -0.2222
      7 C           2.1966    4.0380   25.5724 C.ar    1  UNL1        0.0851
      8 C           2.7480    3.1405   26.6403 C.ar    1  UNL1        0.1035
      9 N           4.2451    3.2101   26.5768 N.ar    1  UNL1       -0.2263
     10 C           4.6189    4.1506   25.4698 C.ar    1  UNL1        0.1486
     11 C           5.9485    4.6072   24.9467 C.ar    1  UNL1        0.0488
     12 C           6.0121    5.5756   23.8029 C.ar    1  UNL1        0.0622
     13 CL          7.3417    6.0322   23.2799 Cl      1  UNL1       -0.0821
     14 C           4.7461    6.0873   23.1821 C.ar    1  UNL1        0.0305
     15 C           3.4164    5.6307   23.7051 C.ar    1  UNL1        0.0823
     16 N           3.3528    4.6623   24.8490 N.ar    1  UNL1       -0.2887
     17 C           1.9437    2.3178   27.6026 C.ar    1  UNL1        0.0723
     18 C           1.1568    2.9899   28.6886 C.ar    1  UNL1        0.0078
     19 C           0.3524    2.1672   29.6509 C.ar    1  UNL1        0.0209
     20 C           0.3349    0.6724   29.5274 C.ar    1  UNL1        0.1021
     21 N           1.1218    0.0003   28.4416 N.ar    1  UNL1       -0.2101
     22 C           1.9261    0.8230   27.4792 C.ar    1  UNL1        0.2264
     23 O           2.7130    0.1508   26.3933 O.3     1  UNL1       -0.4561
     24 C           3.8516   -0.7597   26.7462 C.3     1  UNL1        0.2542
     25 C          -4.6606    4.4612   25.3480 C.2     1  UNL1        0.2414
     26 O          -4.2546    3.7220   26.5885 O.2     1  UNL1       -0.2733
     27 N          -3.6139    4.9678   24.4005 N.am    1  UNL1       -0.2682
     28 H          -3.8804    5.4529   23.5863 H       1  UNL1        0.1563
     29 C          -6.1132    4.6936   25.0550 C.3     1  UNL1        0.1319
     30 C          -6.8613    5.7727   25.7802 C.3     1  UNL1        0.0270
     31 C          -6.7297    4.1960   22.5807 C.3     1  UNL1        0.0862
     32 N          -6.8178    3.8470   24.0368 N.3     1  UNL1       -0.2902
     33 H          -6.4501    2.9006   24.1355 H       1  UNL1        0.1237
     34 C           0.7463    2.2407   23.6576 C.1     1  UNL1       -0.0404
     35 C           1.4737    1.1097   22.9932 C.1     1  UNL1       -0.0583
     36 C           2.2012   -0.0215   22.3288 C.ar    1  UNL1        0.0420
     37 C           1.9303   -0.3447   20.8893 C.ar    1  UNL1        0.0083
     38 C           2.6578   -1.4758   20.2250 C.ar    1  UNL1        0.0018
     39 C           3.6561   -2.2836   21.0001 C.ar    1  UNL1        0.0137
     40 C           4.3836   -3.4148   20.3356 C.ar    1  UNL1        0.0594
     41 C           4.1127   -3.7380   18.8962 C.3     1  UNL1        0.0521
     42 N           5.3819   -4.2226   21.1107 N.ar    1  UNL1       -0.2481
     43 C           5.6527   -3.8993   22.5503 C.ar    1  UNL1        0.0984
     44 C           4.9253   -2.7682   23.2146 C.ar    1  UNL1        0.0207
     45 C           3.9269   -1.9604   22.4395 C.ar    1  UNL1        0.0033
     46 C           3.1995   -0.8293   23.1039 C.ar    1  UNL1        0.0083
@<TRIPOS>BOND
     1    31    32    1
     2    32    29    1
     3    29    30    1
     4    29    25    1
     5    25    26    2
     6    25    27   am
     7    27     1    1
     8     1     2   ar
     9     2     3   ar
    10     3     4   ar
    11     4     7    1
    12     7     8   ar
    13     8    17    1
    14    17    18   ar
    15    18    19   ar
    16    19    20   ar
    17    20    21   ar
    18    21    22   ar
    19    22    23    1
    20    23    24    1
    21     8     9   ar
    22     9    10   ar
    23    10    11   ar
    24    11    12   ar
    25    12    13    1
    26    12    14   ar
    27    14    15   ar
    28    15    16   ar
    29     4     5   ar
    30     5    34    1
    31    34    35    3
    32    35    36    1
    33    36    37   ar
    34    37    38   ar
    35    38    39   ar
    36    39    40   ar
    37    40    41    1
    38    40    42   ar
    39    42    43   ar
    40    43    44   ar
    41    44    45   ar
    42    45    46   ar
    43     5     6   ar
    44     6     1   ar
    45    16     7   ar
    46    46    36   ar
    47    22    17   ar
    48    16    10   ar
    49    45    39   ar
    50    32    33    1
    51    27    28    1
@<TRIPOS>MOLECULE
*****
 46 51 0 0 0
SMALL
GASTEIGER

@<TRIPOS>ATOM
      1 C          -0.2152    1.7719   20.5072 C.ar    1  UNL1        0.1348
      2 C           0.2114    1.7697   19.0692 C.ar    1  UNL1        0.0346
      3 C           1.4808    1.0805   18.6646 C.ar    1  UNL1        0.0065
      4 C           2.3235    0.3936   19.6979 C.ar    1  UNL1        0.0432
      5 C           1.8969    0.3959   21.1359 C.ar    1  UNL1        0.1256
      6 N           0.6276    1.0850   21.5406 N.ar    1  UNL1       -0.2222
      7 C           3.5929   -0.2955   19.2932 C.ar    1  UNL1        0.0851
      8 C           4.8874    0.3760   18.9419 C.ar    1  UNL1        0.1035
      9 N           5.8852   -0.6906   18.6004 N.ar    1  UNL1       -0.2263
     10 C           5.2074   -2.0214   18.7406 C.ar    1  UNL1        0.1486
     11 C           5.6972   -3.4240   18.5337 C.ar    1  UNL1        0.0488
     12 C           4.7703   -4.5823   18.7549 C.ar    1  UNL1        0.0622
     13 CL          5.2601   -5.9849   18.5480 Cl      1  UNL1       -0.0821
     14 C           3.3536   -4.3382   19.1831 C.ar    1  UNL1        0.0305
     15 C           2.8638   -2.9356   19.3900 C.ar    1  UNL1        0.0823
     16 N           3.7907   -1.7772   19.1688 N.ar    1  UNL1       -0.2887
     17 C           5.1398    1.8546   18.9337 C.ar    1  UNL1        0.0723
     18 C           5.1813    2.6011   17.6332 C.ar    1  UNL1        0.0078
     19 C           5.4337    4.0797   17.6249 C.ar    1  UNL1        0.0209
     20 C           5.6445    4.8119   18.9170 C.ar    1  UNL1        0.1021
     21 N           5.6029    4.0654   20.2174 N.ar    1  UNL1       -0.2101
     22 C           5.3506    2.5868   20.2257 C.ar    1  UNL1        0.2264
     23 O           5.3090    1.8404   21.5262 O.3     1  UNL1       -0.4561
     24 C           6.5760    1.3040   22.1238 C.3     1  UNL1        0.2542
     25 C          -1.4287    3.7954   21.5948 C.2     1  UNL1        0.2414
     26 O          -0.1035    4.4407   21.8730 O.2     1  UNL1       -0.2733
     27 N          -1.4846    2.4611   20.9119 N.am    1  UNL1       -0.2682
     28 H          -2.3544    2.0376   20.7293 H       1  UNL1        0.1563
     29 C          -2.6981    4.4846   21.9994 C.3     1  UNL1        0.1319
     30 C          -2.9287    5.9167   21.6173 C.3     1  UNL1        0.0270
     31 C          -4.9627    3.2152   22.1005 C.3     1  UNL1        0.0862
     32 N          -3.7369    3.7417   22.7862 N.3     1  UNL1       -0.2902
     33 H          -3.2687    2.9400   23.2088 H       1  UNL1        0.1237
     34 C           2.7397   -0.2910   22.1694 C.1     1  UNL1       -0.0404
     35 C           3.5825   -0.9780   23.2027 C.1     1  UNL1       -0.0583
     36 C           4.4252   -1.6649   24.2362 C.ar    1  UNL1        0.0420
     37 C           4.3564   -1.2299   25.6700 C.ar    1  UNL1        0.0083
     38 C           5.1992   -1.9169   26.7034 C.ar    1  UNL1        0.0018
     39 C           6.1108   -3.0388   26.3029 C.ar    1  UNL1        0.0137
     40 C           6.9535   -3.7257   27.3363 C.ar    1  UNL1        0.0594
     41 C           6.8847   -3.2907   28.7702 C.3     1  UNL1        0.0521
     42 N           7.8651   -4.8476   26.9358 N.ar    1  UNL1       -0.2481
     43 C           7.9339   -5.2825   25.5018 C.ar    1  UNL1        0.0984
     44 C           7.0911   -4.5956   24.4685 C.ar    1  UNL1        0.0207
     45 C           6.1796   -3.4737   24.8690 C.ar    1  UNL1        0.0033
     46 C           5.3368   -2.7868   23.8356 C.ar    1  UNL1        0.0083
@<TRIPOS>BOND
     1    31    32    1
     2    32    29    1
     3    29    30    1
     4    29    25    1
     5    25    26    2
     6    25    27   am
     7    27     1    1
     8     1     2   ar
     9     2     3   ar
    10     3     4   ar
    11     4     7    1
    12     7     8   ar
    13     8    17    1
    14    17    18   ar
    15    18    19   ar
    16    19    20   ar
    17    20    21   ar
    18    21    22   ar
    19    22    23    1
    20    23    24    1
    21     8     9   ar
    22     9    10   ar
    23    10    11   ar
    24    11    12   ar
    25    12    13    1
    26    12    14   ar
    27    14    15   ar
    28    15    16   ar
    29     4     5   ar
    30     5    34    1
    31    34    35    3
    32    35    36    1
    33    36    37   ar
    34    37    38   ar
    35    38    39   ar
    36    39    40   ar
    37    40    41    1
    38    40    42   ar
    39    42    43   ar
    40    43    44   ar
    41    44    45   ar
    42    45    46   ar
    43     5     6   ar
    44     6     1   ar
    45    16     7   ar
    46    46    36   ar
    47    22    17   ar
    48    16    10   ar
    49    45    39   ar
    50    32    33    1
    51    27    28    1
@<TRIPOS>MOLECULE
*****
 46 51 0 0 0
SMALL
GASTEIGER

@<TRIPOS>ATOM
      1 C           5.9229   -2.8406   25.2226 C.ar    1  UNL1        0.1348
      2 C           6.9212   -2.5466   24.1424 C.ar    1  UNL1        0.0346
      3 C           6.6663   -1.4351   23.1679 C.ar    1  UNL1        0.0065
      4 C           5.4130   -0.6178   23.2735 C.ar    1  UNL1        0.0432
      5 C           4.4147   -0.9119   24.3536 C.ar    1  UNL1        0.1256
      6 N           4.6696   -2.0233   25.3282 N.ar    1  UNL1       -0.2222
      7 C           5.1581    0.4936   22.2989 C.ar    1  UNL1        0.0851
      8 C           4.8304    0.3327   20.8441 C.ar    1  UNL1        0.1035
      9 N           4.6559    1.7008   20.2541 N.ar    1  UNL1       -0.2263
     10 C           4.8757    2.7072   21.3444 C.ar    1  UNL1        0.1486
     11 C           4.8334    4.2066   21.3497 C.ar    1  UNL1        0.0488
     12 C           5.1015    4.9599   22.6188 C.ar    1  UNL1        0.0622
     13 CL          5.0591    6.4593   22.6242 Cl      1  UNL1       -0.0821
     14 C           5.4118    4.2139   23.8827 C.ar    1  UNL1        0.0305
     15 C           5.4542    2.7146   23.8773 C.ar    1  UNL1        0.0823
     16 N           5.1861    1.9612   22.6082 N.ar    1  UNL1       -0.2887
     17 C           4.7001   -0.9679   20.1082 C.ar    1  UNL1        0.0723
     18 C           5.8607   -1.5059   19.3248 C.ar    1  UNL1        0.0078
     19 C           5.7303   -2.8066   18.5890 C.ar    1  UNL1        0.0209
     20 C           4.4395   -3.5692   18.6366 C.ar    1  UNL1        0.1021
     21 N           3.2791   -3.0311   19.4200 N.ar    1  UNL1       -0.2101
     22 C           3.4094   -1.7305   20.1558 C.ar    1  UNL1        0.2264
     23 O           2.2488   -1.1925   20.9393 O.3     1  UNL1       -0.4561
     24 C           1.1422   -0.4642   20.2357 C.3     1  UNL1        0.2542
     25 C           6.3810   -3.6430   27.6508 C.2     1  UNL1        0.2414
     26 O           6.3293   -2.2225   28.1300 O.2     1  UNL1       -0.2733
     27 N           6.1778   -3.9521   26.1971 N.am    1  UNL1       -0.2682
     28 H           6.2117   -4.8844   25.8827 H       1  UNL1        0.1563
     29 C           6.6359   -4.7545   28.6253 C.3     1  UNL1        0.1319
     30 C           6.8260   -4.4466   30.0811 C.3     1  UNL1        0.0270
     31 C           8.0302   -6.8442   27.9629 C.3     1  UNL1        0.0862
     32 N           6.7007   -6.1737   28.1442 N.3     1  UNL1       -0.2902
     33 H           6.1763   -6.7361   28.8144 H       1  UNL1        0.1237
     34 C           3.1613   -0.0945   24.4593 C.1     1  UNL1       -0.0404
     35 C           1.9080    0.7229   24.5649 C.1     1  UNL1       -0.0583
     36 C           0.6547    1.5402   24.6705 C.ar    1  UNL1        0.0420
     37 C          -0.1124    1.5739   25.9591 C.ar    1  UNL1        0.0083
     38 C          -1.3656    2.3912   26.0647 C.ar    1  UNL1        0.0018
     39 C          -1.8519    3.1749   24.8817 C.ar    1  UNL1        0.0137
     40 C          -3.1052    3.9923   24.9873 C.ar    1  UNL1        0.0594
     41 C          -3.8723    4.0260   26.2759 C.3     1  UNL1        0.0521
     42 N          -3.5915    4.7759   23.8043 N.ar    1  UNL1       -0.2481
     43 C          -2.8244    4.7422   22.5157 C.ar    1  UNL1        0.0984
     44 C          -1.5711    3.9249   22.4101 C.ar    1  UNL1        0.0207
     45 C          -1.0849    3.1412   23.5931 C.ar    1  UNL1        0.0033
     46 C           0.1684    2.3239   23.4875 C.ar    1  UNL1        0.0083
@<TRIPOS>BOND
     1    31    32    1
     2    32    29    1
     3    29    30    1
     4    29    25    1
     5    25    26    2
     6    25    27   am
     7    27     1    1
     8     1     2   ar
     9     2     3   ar
    10     3     4   ar
    11     4     7    1
    12     7     8   ar
    13     8    17    1
    14    17    18   ar
    15    18    19   ar
    16    19    20   ar
    17    20    21   ar
    18    21    22   ar
    19    22    23    1
    20    23    24    1
    21     8     9   ar
    22     9    10   ar
    23    10    11   ar
    24    11    12   ar
    25    12    13    1
    26    12    14   ar
    27    14    15   ar
    28    15    16   ar
    29     4     5   ar
    30     5    34    1
    31    34    35    3
    32    35    36    1
    33    36    37   ar
    34    37    38   ar
    35    38    39   ar
    36    39    40   ar
    37    40    41    1
    38    40    42   ar
    39    42    43   ar
    40    43    44   ar
    41    44    45   ar
    42    45    46   ar
    43     5     6   ar
    44     6     1   ar
    45    16     7   ar
    46    46    36   ar
    47    22    17   ar
    48    16    10   ar
    49    45    39   ar
    50    32    33    1
    51    27    28    1
@<TRIPOS>MOLECULE
*****
 46 51 0 0 0
SMALL
GASTEIGER

@<TRIPOS>ATOM
      1 C           0.5610    0.7934   19.7916 C.ar    1  UNL1        0.1348
      2 C           0.8549    1.5355   18.5217 C.ar    1  UNL1        0.0346
      3 C           0.1643    2.8360   18.2360 C.ar    1  UNL1        0.0065
      4 C          -0.8203    3.3944   19.2202 C.ar    1  UNL1        0.0432
      5 C          -1.1142    2.6523   20.4901 C.ar    1  UNL1        0.1256
      6 N          -0.4236    1.3518   20.7758 N.ar    1  UNL1       -0.2222
      7 C          -1.5109    4.6950   18.9345 C.ar    1  UNL1        0.0851
      8 C          -0.9260    6.0635   19.1212 C.ar    1  UNL1        0.1035
      9 N          -1.9613    7.0697   18.7140 N.ar    1  UNL1       -0.2263
     10 C          -3.1861    6.3230   18.2756 C.ar    1  UNL1        0.1486
     11 C          -4.5189    6.7898   17.7699 C.ar    1  UNL1        0.0488
     12 C          -5.5733    5.7889   17.4005 C.ar    1  UNL1        0.0622
     13 CL         -6.9061    6.2557   16.8948 Cl      1  UNL1       -0.0821
     14 C          -5.2951    4.3212   17.5367 C.ar    1  UNL1        0.0305
     15 C          -3.9623    3.8544   18.0424 C.ar    1  UNL1        0.0823
     16 N          -2.9077    4.8553   18.4119 N.ar    1  UNL1       -0.2887
     17 C           0.4523    6.3719   19.6265 C.ar    1  UNL1        0.0723
     18 C           1.5792    6.5721   18.6568 C.ar    1  UNL1        0.0078
     19 C           2.9575    6.8804   19.1621 C.ar    1  UNL1        0.0209
     20 C           3.2089    6.9885   20.6369 C.ar    1  UNL1        0.1021
     21 N           2.0821    6.7883   21.6065 N.ar    1  UNL1       -0.2101
     22 C           0.7038    6.4800   21.1012 C.ar    1  UNL1        0.2264
     23 O          -0.4231    6.2798   22.0709 O.3     1  UNL1       -0.4561
     24 C          -0.1368    5.8121   23.4671 C.3     1  UNL1        0.2542
     25 C           2.6942   -0.5159   20.4882 C.2     1  UNL1        0.2414
     26 O           3.4462    0.7760   20.6134 O.2     1  UNL1       -0.2733
     27 N           1.2516   -0.5072   20.0773 N.am    1  UNL1       -0.2682
     28 H           0.7581   -1.3551   19.9951 H       1  UNL1        0.1563
     29 C           3.3848   -1.8164   20.7739 C.3     1  UNL1        0.1319
     30 C           3.5366   -2.8395   19.6874 C.3     1  UNL1        0.0270
     31 C           4.6598   -3.3721   22.4183 C.3     1  UNL1        0.0862
     32 N           3.9236   -2.0939   22.1460 N.3     1  UNL1       -0.2902
     33 H           4.5634   -1.3320   22.3707 H       1  UNL1        0.1237
     34 C          -2.0988    3.2107   21.4744 C.1     1  UNL1       -0.0404
     35 C          -3.0833    3.7691   22.4587 C.1     1  UNL1       -0.0583
     36 C          -4.0679    4.3275   23.4431 C.ar    1  UNL1        0.0420
     37 C          -3.6209    4.6877   24.8288 C.ar    1  UNL1        0.0083
     38 C          -4.6055    5.2461   25.8130 C.ar    1  UNL1        0.0018
     39 C          -6.0371    5.4442   25.4115 C.ar    1  UNL1        0.0137
     40 C          -7.0217    6.0026   26.3959 C.ar    1  UNL1        0.0594
     41 C          -6.5747    6.3628   27.7816 C.3     1  UNL1        0.0521
     42 N          -8.4534    6.2008   25.9943 N.ar    1  UNL1       -0.2481
     43 C          -8.9004    5.8405   24.6085 C.ar    1  UNL1        0.0984
     44 C          -7.9158    5.2821   23.6243 C.ar    1  UNL1        0.0207
     45 C          -6.4842    5.0840   24.0258 C.ar    1  UNL1        0.0033
     46 C          -5.4996    4.5256   23.0415 C.ar    1  UNL1        0.0083
@<TRIPOS>BOND
     1    31    32    1
     2    32    29    1
     3    29    30    1
     4    29    25    1
     5    25    26    2
     6    25    27   am
     7    27     1    1
     8     1     2   ar
     9     2     3   ar
    10     3     4   ar
    11     4     7    1
    12     7     8   ar
    13     8    17    1
    14    17    18   ar
    15    18    19   ar
    16    19    20   ar
    17    20    21   ar
    18    21    22   ar
    19    22    23    1
    20    23    24    1
    21     8     9   ar
    22     9    10   ar
    23    10    11   ar
    24    11    12   ar
    25    12    13    1
    26    12    14   ar
    27    14    15   ar
    28    15    16   ar
    29     4     5   ar
    30     5    34    1
    31    34    35    3
    32    35    36    1
    33    36    37   ar
    34    37    38   ar
    35    38    39   ar
    36    39    40   ar
    37    40    41    1
    38    40    42   ar
    39    42    43   ar
    40    43    44   ar
    41    44    45   ar
    42    45    46   ar
    43     5     6   ar
    44     6     1   ar
    45    16     7   ar
    46    46    36   ar
    47    22    17   ar
    48    16    10   ar
    49    45    39   ar
    50    32    33    1
    51    27    28    1
@<TRIPOS>MOLECULE
*****
 46 51 0 0 0
SMALL
GASTEIGER

@<TRIPOS>ATOM
      1 C           1.0136    0.0669   19.7834 C.ar    1  UNL1        0.1348
      2 C           1.0017    0.7113   18.4289 C.ar    1  UNL1        0.0346
      3 C           0.3886    2.0685   18.2494 C.ar    1  UNL1        0.0065
      4 C          -0.2125    2.7813   19.4243 C.ar    1  UNL1        0.0432
      5 C          -0.2006    2.1369   20.7788 C.ar    1  UNL1        0.1256
      6 N           0.4124    0.7797   20.9583 N.ar    1  UNL1       -0.2222
      7 C          -0.8255    4.1385   19.2448 C.ar    1  UNL1        0.0851
      8 C          -0.0833    5.4106   18.9607 C.ar    1  UNL1        0.1035
      9 N          -1.0875    6.5202   18.8581 N.ar    1  UNL1       -0.2263
     10 C          -2.4503    5.9338   19.0788 C.ar    1  UNL1        0.1486
     11 C          -3.8178    6.5500   19.0931 C.ar    1  UNL1        0.0488
     12 C          -5.0235    5.6942   19.3463 C.ar    1  UNL1        0.0622
     13 CL         -6.3910    6.3104   19.3606 Cl      1  UNL1       -0.0821
     14 C          -4.8616    4.2222   19.5853 C.ar    1  UNL1        0.0305
     15 C          -3.4941    3.6060   19.5710 C.ar    1  UNL1        0.0823
     16 N          -2.2884    4.4618   19.3178 N.ar    1  UNL1       -0.2887
     17 C           1.4023    5.5490   18.8062 C.ar    1  UNL1        0.0723
     18 C           2.0511    5.2437   17.4886 C.ar    1  UNL1        0.0078
     19 C           3.5367    5.3821   17.3342 C.ar    1  UNL1        0.0209
     20 C           4.3735    5.8256   18.4973 C.ar    1  UNL1        0.1021
     21 N           3.7248    6.1309   19.8148 N.ar    1  UNL1       -0.2101
     22 C           2.2392    5.9925   19.9693 C.ar    1  UNL1        0.2264
     23 O           1.5905    6.2978   21.2869 O.3     1  UNL1       -0.4561
     24 C           1.8179    5.3937   22.4620 C.3     1  UNL1        0.2542
     25 C           3.1151   -1.4574   19.8829 C.2     1  UNL1        0.2414
     26 O           3.9906   -0.2674   19.6234 O.2     1  UNL1       -0.2733
     27 N           1.6266   -1.2903   19.9629 N.am    1  UNL1       -0.2682
     28 H           1.0520   -2.0713   20.1332 H       1  UNL1        0.1563
     29 C           3.7281   -2.8146   20.0625 C.3     1  UNL1        0.1319
     30 C           4.5218   -3.1216   21.2978 C.3     1  UNL1        0.0270
     31 C           4.6580   -4.8284   18.7097 C.3     1  UNL1        0.0862
     32 N           3.5475   -3.8648   19.0068 N.3     1  UNL1       -0.2902
     33 H           2.7391   -4.4228   19.2818 H       1  UNL1        0.1237
     34 C          -0.8018    2.8498   21.9538 C.1     1  UNL1       -0.0404
     35 C          -1.4028    3.5625   23.1287 C.1     1  UNL1       -0.0583
     36 C          -2.0040    4.2753   24.3038 C.ar    1  UNL1        0.0420
     37 C          -1.1146    4.9196   25.3254 C.ar    1  UNL1        0.0083
     38 C          -1.7158    5.6324   26.5003 C.ar    1  UNL1        0.0018
     39 C          -3.2063    5.7009   26.6536 C.ar    1  UNL1        0.0137
     40 C          -3.8075    6.4137   27.8286 C.ar    1  UNL1        0.0594
     41 C          -2.9181    7.0580   28.8503 C.3     1  UNL1        0.0521
     42 N          -5.2981    6.4822   27.9819 N.ar    1  UNL1       -0.2481
     43 C          -6.1875    5.8378   26.9602 C.ar    1  UNL1        0.0984
     44 C          -5.5863    5.1251   25.7853 C.ar    1  UNL1        0.0207
     45 C          -4.0957    5.0566   25.6320 C.ar    1  UNL1        0.0033
     46 C          -3.4946    4.3438   24.4571 C.ar    1  UNL1        0.0083
@<TRIPOS>BOND
     1    31    32    1
     2    32    29    1
     3    29    30    1
     4    29    25    1
     5    25    26    2
     6    25    27   am
     7    27     1    1
     8     1     2   ar
     9     2     3   ar
    10     3     4   ar
    11     4     7    1
    12     7     8   ar
    13     8    17    1
    14    17    18   ar
    15    18    19   ar
    16    19    20   ar
    17    20    21   ar
    18    21    22   ar
    19    22    23    1
    20    23    24    1
    21     8     9   ar
    22     9    10   ar
    23    10    11   ar
    24    11    12   ar
    25    12    13    1
    26    12    14   ar
    27    14    15   ar
    28    15    16   ar
    29     4     5   ar
    30     5    34    1
    31    34    35    3
    32    35    36    1
    33    36    37   ar
    34    37    38   ar
    35    38    39   ar
    36    39    40   ar
    37    40    41    1
    38    40    42   ar
    39    42    43   ar
    40    43    44   ar
    41    44    45   ar
    42    45    46   ar
    43     5     6   ar
    44     6     1   ar
    45    16     7   ar
    46    46    36   ar
    47    22    17   ar
    48    16    10   ar
    49    45    39   ar
    50    32    33    1
    51    27    28    1
@<TRIPOS>MOLECULE
*****
 46 51 0 0 0
SMALL
GASTEIGER

@<TRIPOS>ATOM
      1 C           4.6585   -0.0419   35.5528 C.ar    1  UNL1        0.1348
      2 C           6.0719   -0.5388   35.4795 C.ar    1  UNL1        0.0346
      3 C           6.7248   -0.7490   34.1455 C.ar    1  UNL1        0.0065
      4 C           5.9642   -0.4624   32.8848 C.ar    1  UNL1        0.0432
      5 C           4.5509    0.0345   32.9581 C.ar    1  UNL1        0.1256
      6 N           3.8980    0.2448   34.2921 N.ar    1  UNL1       -0.2222
      7 C           6.6171   -0.6727   31.5508 C.ar    1  UNL1        0.0851
      8 C           7.1461    0.4027   30.6488 C.ar    1  UNL1        0.1035
      9 N           7.7116   -0.2552   29.4251 N.ar    1  UNL1       -0.2263
     10 C           7.5320   -1.7373   29.5708 C.ar    1  UNL1        0.1486
     11 C           7.8970   -2.8852   28.6769 C.ar    1  UNL1        0.0488
     12 C           7.5856   -4.2911   29.0968 C.ar    1  UNL1        0.0622
     13 CL          7.9506   -5.4391   28.2030 Cl      1  UNL1       -0.0821
     14 C           6.9092   -4.5492   30.4106 C.ar    1  UNL1        0.0305
     15 C           6.5442   -3.4013   31.3044 C.ar    1  UNL1        0.0823
     16 N           6.8556   -1.9952   30.8845 N.ar    1  UNL1       -0.2887
     17 C           7.1152    1.8773   30.9224 C.ar    1  UNL1        0.0723
     18 C           6.1371    2.7541   30.1981 C.ar    1  UNL1        0.0078
     19 C           6.1062    4.2287   30.4717 C.ar    1  UNL1        0.0209
     20 C           7.0533    4.8263   31.4696 C.ar    1  UNL1        0.1021
     21 N           8.0313    3.9495   32.1938 N.ar    1  UNL1       -0.2101
     22 C           8.0622    2.4750   31.9202 C.ar    1  UNL1        0.2264
     23 O           9.0403    1.5982   32.6446 O.3     1  UNL1       -0.4561
     24 C           9.4764    1.9510   34.0358 C.3     1  UNL1        0.2542
     25 C           3.8262    1.5576   37.4233 C.2     1  UNL1        0.2414
     26 O           4.2996    2.7366   36.6258 O.2     1  UNL1       -0.2733
     27 N           4.0056    0.1684   36.8868 N.am    1  UNL1       -0.2682
     28 H           3.6949   -0.6054   37.4102 H       1  UNL1        0.1563
     29 C           3.1733    1.7678   38.7573 C.3     1  UNL1        0.1319
     30 C           2.9585    3.1588   39.2763 C.3     1  UNL1        0.0270
     31 C           1.2876    0.1960   39.6077 C.3     1  UNL1        0.0862
     32 N           2.7352    0.5873   39.5723 N.3     1  UNL1       -0.2902
     33 H           3.2500   -0.2203   39.2212 H       1  UNL1        0.1237
     34 C           3.7903    0.3212   31.6973 C.1     1  UNL1       -0.0404
     35 C           3.0297    0.6078   30.4367 C.1     1  UNL1       -0.0583
     36 C           2.2691    0.8945   29.1759 C.ar    1  UNL1        0.0420
     37 C           0.9474    1.6006   29.2415 C.ar    1  UNL1        0.0083
     38 C           0.1869    1.8873   27.9808 C.ar    1  UNL1        0.0018
     39 C           0.7481    1.4678   26.6545 C.ar    1  UNL1        0.0137
     40 C          -0.0125    1.7544   25.3938 C.ar    1  UNL1        0.0594
     41 C          -1.3342    2.4606   25.4593 C.3     1  UNL1        0.0521
     42 N           0.5487    1.3349   24.0675 N.ar    1  UNL1       -0.2481
     43 C           1.8705    0.6287   24.0019 C.ar    1  UNL1        0.0984
     44 C           2.6310    0.3421   25.2626 C.ar    1  UNL1        0.0207
     45 C           2.0698    0.7616   26.5889 C.ar    1  UNL1        0.0033
     46 C           2.8303    0.4750   27.8496 C.ar    1  UNL1        0.0083
@<TRIPOS>BOND
     1    31    32    1
     2    32    29    1
     3    29    30    1
     4    29    25    1
     5    25    26    2
     6    25    27   am
     7    27     1    1
     8     1     2   ar
     9     2     3   ar
    10     3     4   ar
    11     4     7    1
    12     7     8   ar
    13     8    17    1
    14    17    18   ar
    15    18    19   ar
    16    19    20   ar
    17    20    21   ar
    18    21    22   ar
    19    22    23    1
    20    23    24    1
    21     8     9   ar
    22     9    10   ar
    23    10    11   ar
    24    11    12   ar
    25    12    13    1
    26    12    14   ar
    27    14    15   ar
    28    15    16   ar
    29     4     5   ar
    30     5    34    1
    31    34    35    3
    32    35    36    1
    33    36    37   ar
    34    37    38   ar
    35    38    39   ar
    36    39    40   ar
    37    40    41    1
    38    40    42   ar
    39    42    43   ar
    40    43    44   ar
    41    44    45   ar
    42    45    46   ar
    43     5     6   ar
    44     6     1   ar
    45    16     7   ar
    46    46    36   ar
    47    22    17   ar
    48    16    10   ar
    49    45    39   ar
    50    32    33    1
    51    27    28    1
