@<TRIPOS>MOLECULE
*****
 40 46 0 0 0
SMALL
GASTEIGER

@<TRIPOS>ATOM
      1 C          -1.7920    3.8725   20.1676 C.ar    1  UNL1        0.0146
      2 C          -3.1076    3.7127   19.4650 C.ar    1  UNL1       -0.0011
      3 C          -4.3691    3.5575   20.2615 C.ar    1  UNL1        0.0014
      4 C          -4.3151    3.5622   21.7605 C.ar    1  UNL1        0.0206
      5 C          -2.9995    3.7220   22.4631 C.ar    1  UNL1        0.0989
      6 C          -1.7379    3.8771   21.6666 C.ar    1  UNL1        0.1511
      7 O          -0.4223    4.0369   22.3692 O.3     1  UNL1       -0.4678
      8 C          -0.3682    4.0416   23.8682 C.3     1  UNL1        0.2510
      9 C          -1.6299    3.8864   24.6647 C.ar    1  UNL1        0.1087
     10 C          -1.8863    3.8531   26.1422 C.ar    1  UNL1        0.1518
     11 N          -3.3605    3.6728   26.3528 N.ar    1  UNL1       -0.2192
     12 C          -4.0151    3.5946   25.0054 C.ar    1  UNL1        0.1828
     13 N          -2.9455    3.7266   23.9621 N.ar    1  UNL1       -0.2851
     14 C          -0.8505    3.9783   27.2199 C.2     1  UNL1        0.2681
     15 O          -0.3333    5.3312   27.6097 O.2     1  UNL1       -0.2682
     16 N          -0.3320    2.7503   27.9079 N.am    1  UNL1       -0.2748
     17 C          -0.8491    1.3973   27.5181 C.3     1  UNL1        0.0938
     18 C          -0.3305    0.1694   28.2061 C.3     1  UNL1        0.0216
     19 C           0.7053    0.2945   29.2838 C.3     1  UNL1        0.0035
     20 C           1.2225    1.6475   29.6736 C.3     1  UNL1        0.0216
     21 C           0.7038    2.8754   28.9856 C.3     1  UNL1        0.0938
     22 C          -0.5303    4.0276   19.3712 C.3     1  UNL1        0.0468
     23 C          -0.0771    2.9243   18.4616 C.3     1  UNL1        0.0770
     24 N           2.3446   -0.4942   20.1045 N.pl3   1  UNL1       -0.3046
     25 C           2.9831    0.5028   19.1836 C.3     1  UNL1        0.1081
     26 C           2.1759    1.6423   18.6359 C.3     1  UNL1        0.0938
     27 N           0.7301    1.7848   19.0093 N.3     1  UNL1       -0.2695
     28 C           0.0915    0.7877   19.9302 C.3     1  UNL1        0.0938
     29 C           0.8988   -0.3517   20.4779 C.3     1  UNL1        0.1081
     30 C           4.9320   -1.5682   26.3816 C.3     1  UNL1        0.0521
     31 C           4.4870   -1.5846   24.9492 C.ar    1  UNL1        0.0593
     32 C           3.6797   -0.4451   24.4016 C.ar    1  UNL1        0.0148
     33 C           3.2347   -0.4615   22.9693 C.ar    1  UNL1        0.0039
     34 C           3.5969   -1.6173   22.0845 C.ar    1  UNL1        0.0310
     35 C           3.1518   -1.6337   20.6522 C.ar    1  UNL1        0.0493
     36 C           3.5140   -2.7896   19.7674 C.ar    1  UNL1        0.0146
     37 C           4.3212   -3.9291   20.3150 C.ar    1  UNL1        0.0028
     38 C           4.7663   -3.9127   21.7474 C.ar    1  UNL1        0.0192
     39 C           4.4041   -2.7569   22.6321 C.ar    1  UNL1        0.0821
     40 N           4.8492   -2.7405   24.0645 N.ar    1  UNL1       -0.2496
@<TRIPOS>BOND
     1    30    31    1
     2    31    32   ar
     3    32    33   ar
     4    33    34   ar
     5    34    35   ar
     6    35    24    1
     7    24    25    1
     8    25    26    1
     9    26    27    1
    10    27    23    1
    11    23    22    1
    12    22     1    1
    13     1     2   ar
    14     2     3   ar
    15     3     4   ar
    16     4     5   ar
    17     5     6   ar
    18     6     7    1
    19     7     8    1
    20     8     9    1
    21     9    10   ar
    22    10    14    1
    23    14    15    2
    24    14    16   am
    25    16    17    1
    26    17    18    1
    27    18    19    1
    28    19    20    1
    29    20    21    1
    30    10    11   ar
    31    11    12   ar
    32    12    13   ar
    33    27    28    1
    34    28    29    1
    35    35    36   ar
    36    36    37   ar
    37    37    38   ar
    38    38    39   ar
    39    39    40   ar
    40    40    31   ar
    41    39    34   ar
    42    29    24    1
    43     6     1   ar
    44    13     9   ar
    45    13     5    1
    46    21    16    1
@<TRIPOS>MOLECULE
*****
 40 46 0 0 0
SMALL
GASTEIGER

@<TRIPOS>ATOM
      1 C          -0.4705    3.5152   23.7972 C.ar    1  UNL1        0.0146
      2 C          -1.8851    4.0140   23.7898 C.ar    1  UNL1       -0.0011
      3 C          -2.8112    3.6596   24.9154 C.ar    1  UNL1        0.0014
      4 C          -2.3226    2.8064   26.0482 C.ar    1  UNL1        0.0206
      5 C          -0.9080    2.3077   26.0556 C.ar    1  UNL1        0.0989
      6 C           0.0181    2.6621   24.9301 C.ar    1  UNL1        0.1511
      7 O           1.4327    2.1633   24.9374 O.3     1  UNL1       -0.4678
      8 C           1.9213    1.3102   26.0702 C.3     1  UNL1        0.2510
      9 C           0.9952    0.9558   27.1958 C.ar    1  UNL1        0.1087
     10 C           1.1923    0.1386   28.4381 C.ar    1  UNL1        0.1518
     11 N          -0.1007    0.1323   29.1986 N.ar    1  UNL1       -0.2192
     12 C          -1.0967    0.9456   28.4263 C.ar    1  UNL1        0.1828
     13 N          -0.4194    1.4545   27.1885 N.ar    1  UNL1       -0.2851
     14 C           2.4596   -0.5512   28.8480 C.2     1  UNL1        0.2681
     15 O           3.1330   -1.5047   27.9061 O.2     1  UNL1       -0.2682
     16 N           3.0536   -0.2874   30.1999 N.am    1  UNL1       -0.2748
     17 C           2.3802    0.6661   31.1419 C.3     1  UNL1        0.0938
     18 C           2.9742    0.9299   32.4938 C.3     1  UNL1        0.0216
     19 C           4.2416    0.2401   32.9037 C.3     1  UNL1        0.0035
     20 C           4.9149   -0.7134   31.9617 C.3     1  UNL1        0.0216
     21 C           4.3209   -0.9771   30.6098 C.3     1  UNL1        0.0938
     22 C           0.4555    3.8696   22.6716 C.3     1  UNL1        0.0468
     23 C           0.3460    3.1554   21.3571 C.3     1  UNL1        0.0770
     24 N           2.8709   -0.4822   20.5555 N.pl3   1  UNL1       -0.3046
     25 C           3.5200    0.8603   20.7183 C.3     1  UNL1        0.1081
     26 C           2.6784    2.0729   20.9855 C.3     1  UNL1        0.0938
     27 N           1.1876    1.9429   21.0899 N.3     1  UNL1       -0.2695
     28 C           0.5386    0.6004   20.9272 C.3     1  UNL1        0.0938
     29 C           1.3802   -0.6121   20.6600 C.3     1  UNL1        0.1081
     30 C           6.6045   -4.3928   24.8002 C.3     1  UNL1        0.0521
     31 C           5.8815   -3.7183   23.6722 C.ar    1  UNL1        0.0593
     32 C           5.0399   -2.5058   23.9394 C.ar    1  UNL1        0.0148
     33 C           4.3169   -1.8313   22.8114 C.ar    1  UNL1        0.0039
     34 C           4.4356   -2.3692   21.4163 C.ar    1  UNL1        0.0310
     35 C           3.7126   -1.6947   20.2883 C.ar    1  UNL1        0.0493
     36 C           3.8313   -2.2327   18.8931 C.ar    1  UNL1        0.0146
     37 C           4.6729   -3.4452   18.6259 C.ar    1  UNL1        0.0028
     38 C           5.3959   -4.1197   19.7539 C.ar    1  UNL1        0.0192
     39 C           5.2772   -3.5818   21.1491 C.ar    1  UNL1        0.0821
     40 N           6.0002   -4.2563   22.2770 N.ar    1  UNL1       -0.2496
@<TRIPOS>BOND
     1    30    31    1
     2    31    32   ar
     3    32    33   ar
     4    33    34   ar
     5    34    35   ar
     6    35    24    1
     7    24    25    1
     8    25    26    1
     9    26    27    1
    10    27    23    1
    11    23    22    1
    12    22     1    1
    13     1     2   ar
    14     2     3   ar
    15     3     4   ar
    16     4     5   ar
    17     5     6   ar
    18     6     7    1
    19     7     8    1
    20     8     9    1
    21     9    10   ar
    22    10    14    1
    23    14    15    2
    24    14    16   am
    25    16    17    1
    26    17    18    1
    27    18    19    1
    28    19    20    1
    29    20    21    1
    30    10    11   ar
    31    11    12   ar
    32    12    13   ar
    33    27    28    1
    34    28    29    1
    35    35    36   ar
    36    36    37   ar
    37    37    38   ar
    38    38    39   ar
    39    39    40   ar
    40    40    31   ar
    41    39    34   ar
    42    29    24    1
    43     6     1   ar
    44    13     9   ar
    45    13     5    1
    46    21    16    1
@<TRIPOS>MOLECULE
*****
 40 46 0 0 0
SMALL
GASTEIGER

@<TRIPOS>ATOM
      1 C          -0.7788    3.0645   23.2873 C.ar    1  UNL1        0.0146
      2 C          -2.0300    3.6476   22.7003 C.ar    1  UNL1       -0.0011
      3 C          -2.2844    3.5463   21.2256 C.ar    1  UNL1        0.0014
      4 C          -1.2877    2.8619   20.3378 C.ar    1  UNL1        0.0206
      5 C          -0.0366    2.2788   20.9247 C.ar    1  UNL1        0.0989
      6 C           0.2179    2.3801   22.3995 C.ar    1  UNL1        0.1511
      7 O           1.4691    1.7970   22.9865 O.3     1  UNL1       -0.4678
      8 C           2.4658    1.1126   22.0987 C.3     1  UNL1        0.2510
      9 C           2.2113    1.0113   20.6239 C.ar    1  UNL1        0.1087
     10 C           3.0055    0.3997   19.5081 C.ar    1  UNL1        0.1518
     11 N           2.2452    0.6048   18.2314 N.ar    1  UNL1       -0.2192
     12 C           0.9811    1.3432   18.5583 C.ar    1  UNL1        0.1828
     13 N           0.9601    1.5944   20.0369 N.ar    1  UNL1       -0.2851
     14 C           4.3279   -0.2950   19.6448 C.2     1  UNL1        0.2681
     15 O           5.5721    0.5036   19.8977 O.2     1  UNL1       -0.2682
     16 N           4.4059   -1.7885   19.5287 N.am    1  UNL1       -0.2748
     17 C           3.1617   -2.5873   19.2759 C.3     1  UNL1        0.0938
     18 C           3.2399   -4.0807   19.1598 C.3     1  UNL1        0.0216
     19 C           4.5622   -4.7754   19.2965 C.3     1  UNL1        0.0035
     20 C           5.8064   -3.9767   19.5494 C.3     1  UNL1        0.0216
     21 C           5.7283   -2.4832   19.6655 C.3     1  UNL1        0.0938
     22 C          -0.5243    3.1658   24.7621 C.3     1  UNL1        0.0468
     23 C          -1.0116    2.0868   25.6831 C.3     1  UNL1        0.0770
     24 N           1.2620    1.1485   29.4515 N.pl3   1  UNL1       -0.3046
     25 C           1.9104    1.9548   28.3655 C.3     1  UNL1        0.1081
     26 C           1.1525    2.2676   27.1093 C.3     1  UNL1        0.0938
     27 N          -0.2537    1.7741   26.9392 N.3     1  UNL1       -0.2695
     28 C          -0.9021    0.9677   28.0253 C.3     1  UNL1        0.0938
     29 C          -0.1442    0.6550   29.2814 C.3     1  UNL1        0.1081
     30 C           1.6617    4.5260   35.4250 C.3     1  UNL1        0.0521
     31 C           1.7512    3.6035   34.2456 C.ar    1  UNL1        0.0593
     32 C           0.9934    3.9162   32.9895 C.ar    1  UNL1        0.0148
     33 C           1.0829    2.9936   31.8102 C.ar    1  UNL1        0.0039
     34 C           1.9303    1.7584   31.8869 C.ar    1  UNL1        0.0310
     35 C           2.0199    0.8358   30.7075 C.ar    1  UNL1        0.0493
     36 C           2.8673   -0.3995   30.7843 C.ar    1  UNL1        0.0146
     37 C           3.6252   -0.7123   32.0404 C.ar    1  UNL1        0.0028
     38 C           3.5357    0.2103   33.2198 C.ar    1  UNL1        0.0192
     39 C           2.6883    1.4456   33.1430 C.ar    1  UNL1        0.0821
     40 N           2.5987    2.3681   34.3224 N.ar    1  UNL1       -0.2496
@<TRIPOS>BOND
     1    30    31    1
     2    31    32   ar
     3    32    33   ar
     4    33    34   ar
     5    34    35   ar
     6    35    24    1
     7    24    25    1
     8    25    26    1
     9    26    27    1
    10    27    23    1
    11    23    22    1
    12    22     1    1
    13     1     2   ar
    14     2     3   ar
    15     3     4   ar
    16     4     5   ar
    17     5     6   ar
    18     6     7    1
    19     7     8    1
    20     8     9    1
    21     9    10   ar
    22    10    14    1
    23    14    15    2
    24    14    16   am
    25    16    17    1
    26    17    18    1
    27    18    19    1
    28    19    20    1
    29    20    21    1
    30    10    11   ar
    31    11    12   ar
    32    12    13   ar
    33    27    28    1
    34    28    29    1
    35    35    36   ar
    36    36    37   ar
    37    37    38   ar
    38    38    39   ar
    39    39    40   ar
    40    40    31   ar
    41    39    34   ar
    42    29    24    1
    43     6     1   ar
    44    13     9   ar
    45    13     5    1
    46    21    16    1
@<TRIPOS>MOLECULE
*****
 40 46 0 0 0
SMALL
GASTEIGER

@<TRIPOS>ATOM
      1 C           7.1989   -2.2821   29.2109 C.ar    1  UNL1        0.0146
      2 C           8.1062   -2.1845   30.4014 C.ar    1  UNL1       -0.0011
      3 C           7.6313   -1.5071   31.6526 C.ar    1  UNL1        0.0014
      4 C           6.2492   -0.9274   31.7134 C.ar    1  UNL1        0.0206
      5 C           5.3419   -1.0250   30.5229 C.ar    1  UNL1        0.0989
      6 C           5.8168   -1.7024   29.2717 C.ar    1  UNL1        0.1511
      7 O           4.9095   -1.8000   28.0811 O.3     1  UNL1       -0.4678
      8 C           3.5274   -1.2203   28.1419 C.3     1  UNL1        0.2510
      9 C           3.0526   -0.5429   29.3933 C.ar    1  UNL1        0.1087
     10 C           1.7526    0.1172   29.7457 C.ar    1  UNL1        0.1518
     11 N           1.8564    0.6228   31.1542 N.ar    1  UNL1       -0.2192
     12 C           3.2206    0.2752   31.6720 C.ar    1  UNL1        0.1828
     13 N           3.9598   -0.4453   30.5837 N.ar    1  UNL1       -0.2851
     14 C           0.5584    0.2486   28.8476 C.2     1  UNL1        0.2681
     15 O          -0.6795   -0.5521   29.1237 O.2     1  UNL1       -0.2682
     16 N           0.6023    1.1808   27.6732 N.am    1  UNL1       -0.2748
     17 C           1.8402    1.9816   27.3970 C.3     1  UNL1        0.0938
     18 C           1.8839    2.9138   26.2227 C.3     1  UNL1        0.0216
     19 C           0.6897    3.0453   25.3245 C.3     1  UNL1        0.0035
     20 C          -0.5482    2.2445   25.6007 C.3     1  UNL1        0.0216
     21 C          -0.5919    1.3123   26.7751 C.3     1  UNL1        0.0938
     22 C           7.6737   -2.9595   27.9596 C.3     1  UNL1        0.0468
     23 C           8.1015   -2.1393   26.7788 C.3     1  UNL1        0.0770
     24 N           5.9866   -2.6004   22.8336 N.pl3   1  UNL1       -0.3046
     25 C           5.7931   -3.6244   23.9125 C.3     1  UNL1        0.1081
     26 C           6.4981   -3.4707   25.2276 C.3     1  UNL1        0.0938
     27 N           7.3966   -2.2930   25.4638 N.3     1  UNL1       -0.2695
     28 C           7.5900   -1.2690   24.3849 C.3     1  UNL1        0.0938
     29 C           6.8851   -1.4227   23.0698 C.3     1  UNL1        0.1081
     30 C           0.3003    0.3974   20.3987 C.3     1  UNL1        0.0521
     31 C           1.5457   -0.3905   20.6787 C.ar    1  UNL1        0.0593
     32 C           2.2506   -0.2368   21.9937 C.ar    1  UNL1        0.0148
     33 C           3.4960   -1.0246   22.2737 C.ar    1  UNL1        0.0039
     34 C           4.0363   -1.9662   21.2386 C.ar    1  UNL1        0.0310
     35 C           5.2817   -2.7541   21.5186 C.ar    1  UNL1        0.0493
     36 C           5.8220   -3.6957   20.4835 C.ar    1  UNL1        0.0146
     37 C           5.1171   -3.8494   19.1684 C.ar    1  UNL1        0.0028
     38 C           3.8717   -3.0616   18.8885 C.ar    1  UNL1        0.0192
     39 C           3.3314   -2.1200   19.9235 C.ar    1  UNL1        0.0821
     40 N           2.0860   -1.3321   19.6435 N.ar    1  UNL1       -0.2496
@<TRIPOS>BOND
     1    30    31    1
     2    31    32   ar
     3    32    33   ar
     4    33    34   ar
     5    34    35   ar
     6    35    24    1
     7    24    25    1
     8    25    26    1
     9    26    27    1
    10    27    23    1
    11    23    22    1
    12    22     1    1
    13     1     2   ar
    14     2     3   ar
    15     3     4   ar
    16     4     5   ar
    17     5     6   ar
    18     6     7    1
    19     7     8    1
    20     8     9    1
    21     9    10   ar
    22    10    14    1
    23    14    15    2
    24    14    16   am
    25    16    17    1
    26    17    18    1
    27    18    19    1
    28    19    20    1
    29    20    21    1
    30    10    11   ar
    31    11    12   ar
    32    12    13   ar
    33    27    28    1
    34    28    29    1
    35    35    36   ar
    36    36    37   ar
    37    37    38   ar
    38    38    39   ar
    39    39    40   ar
    40    40    31   ar
    41    39    34   ar
    42    29    24    1
    43     6     1   ar
    44    13     9   ar
    45    13     5    1
    46    21    16    1
@<TRIPOS>MOLECULE
*****
 40 46 0 0 0
SMALL
GASTEIGER

@<TRIPOS>ATOM
      1 C           7.0203   -4.4482   29.0649 C.ar    1  UNL1        0.0146
      2 C           7.5655   -5.7513   29.5694 C.ar    1  UNL1       -0.0011
      3 C           8.0367   -6.7932   28.5987 C.ar    1  UNL1        0.0014
      4 C           7.9628   -6.5320   27.1235 C.ar    1  UNL1        0.0206
      5 C           7.4176   -5.2289   26.6189 C.ar    1  UNL1        0.0989
      6 C           6.9464   -4.1870   27.5897 C.ar    1  UNL1        0.1511
      7 O           6.4012   -2.8837   27.0852 O.3     1  UNL1       -0.4678
      8 C           6.3273   -2.6225   25.6099 C.3     1  UNL1        0.2510
      9 C           6.7986   -3.6645   24.6392 C.ar    1  UNL1        0.1087
     10 C           6.8483   -3.6904   23.1403 C.ar    1  UNL1        0.1518
     11 N           7.4242   -5.0096   22.7184 N.ar    1  UNL1       -0.2192
     12 C           7.7304   -5.7990   23.9566 C.ar    1  UNL1        0.1828
     13 N           7.3437   -4.9676   25.1437 N.ar    1  UNL1       -0.2851
     14 C           6.4007   -2.5903   22.2241 C.2     1  UNL1        0.2681
     15 O           6.9522   -1.2053   22.3897 O.2     1  UNL1       -0.2682
     16 N           5.4014   -2.8753   21.1422 N.am    1  UNL1       -0.2748
     17 C           4.8499   -4.2603   20.9765 C.3     1  UNL1        0.0938
     18 C           3.8507   -4.5452   19.8946 C.3     1  UNL1        0.0216
     19 C           3.4031   -3.4451   18.9785 C.3     1  UNL1        0.0035
     20 C           3.9547   -2.0601   19.1442 C.3     1  UNL1        0.0216
     21 C           4.9538   -1.7752   20.2261 C.3     1  UNL1        0.0938
     22 C           6.5490   -3.4062   30.0356 C.3     1  UNL1        0.0468
     23 C           6.8415   -3.5576   31.4990 C.3     1  UNL1        0.0770
     24 N           5.0728   -0.6652   34.4580 N.pl3   1  UNL1       -0.3046
     25 C           4.2727   -1.8456   33.9931 C.3     1  UNL1        0.1081
     26 C           4.8622   -2.8098   33.0067 C.3     1  UNL1        0.0938
     27 N           6.2519   -2.5935   32.4853 N.3     1  UNL1       -0.2695
     28 C           7.0521   -1.4129   32.9503 C.3     1  UNL1        0.0938
     29 C           6.4626   -0.4488   33.9366 C.3     1  UNL1        0.1081
     30 C           0.7265    4.5857   33.5709 C.3     1  UNL1        0.0521
     31 C           1.6657    3.5140   34.0392 C.ar    1  UNL1        0.0593
     32 C           2.2552    2.5499   33.0529 C.ar    1  UNL1        0.0148
     33 C           3.1944    1.4782   33.5213 C.ar    1  UNL1        0.0039
     34 C           3.5441    1.3707   34.9759 C.ar    1  UNL1        0.0310
     35 C           4.4833    0.2990   35.4443 C.ar    1  UNL1        0.0493
     36 C           4.8330    0.1914   36.8991 C.ar    1  UNL1        0.0146
     37 C           4.2434    1.1556   37.8854 C.ar    1  UNL1        0.0028
     38 C           3.3042    2.2272   37.4170 C.ar    1  UNL1        0.0192
     39 C           2.9545    2.3348   35.9623 C.ar    1  UNL1        0.0821
     40 N           2.0153    3.4065   35.4940 N.ar    1  UNL1       -0.2496
@<TRIPOS>BOND
     1    30    31    1
     2    31    32   ar
     3    32    33   ar
     4    33    34   ar
     5    34    35   ar
     6    35    24    1
     7    24    25    1
     8    25    26    1
     9    26    27    1
    10    27    23    1
    11    23    22    1
    12    22     1    1
    13     1     2   ar
    14     2     3   ar
    15     3     4   ar
    16     4     5   ar
    17     5     6   ar
    18     6     7    1
    19     7     8    1
    20     8     9    1
    21     9    10   ar
    22    10    14    1
    23    14    15    2
    24    14    16   am
    25    16    17    1
    26    17    18    1
    27    18    19    1
    28    19    20    1
    29    20    21    1
    30    10    11   ar
    31    11    12   ar
    32    12    13   ar
    33    27    28    1
    34    28    29    1
    35    35    36   ar
    36    36    37   ar
    37    37    38   ar
    38    38    39   ar
    39    39    40   ar
    40    40    31   ar
    41    39    34   ar
    42    29    24    1
    43     6     1   ar
    44    13     9   ar
    45    13     5    1
    46    21    16    1
@<TRIPOS>MOLECULE
*****
 40 46 0 0 0
SMALL
GASTEIGER

@<TRIPOS>ATOM
      1 C           8.5959   -5.1296   23.2563 C.ar    1  UNL1        0.0146
      2 C           8.7168   -6.6115   23.0581 C.ar    1  UNL1       -0.0011
      3 C           8.3939   -7.5477   24.1847 C.ar    1  UNL1        0.0014
      4 C           7.9501   -7.0019   25.5096 C.ar    1  UNL1        0.0206
      5 C           7.8293   -5.5200   25.7078 C.ar    1  UNL1        0.0989
      6 C           8.1522   -4.5839   24.5812 C.ar    1  UNL1        0.1511
      7 O           8.0314   -3.1019   24.7794 O.3     1  UNL1       -0.4678
      8 C           7.5877   -2.5562   26.1043 C.3     1  UNL1        0.2510
      9 C           7.2648   -3.4924   27.2310 C.ar    1  UNL1        0.1087
     10 C           6.8065   -3.2488   28.6383 C.ar    1  UNL1        0.1518
     11 N           6.6441   -4.5802   29.3098 N.ar    1  UNL1       -0.2192
     12 C           7.0020   -5.6466   28.3175 C.ar    1  UNL1        0.1828
     13 N           7.3856   -4.9743   27.0327 N.ar    1  UNL1       -0.2851
     14 C           6.5548   -1.9091   29.2642 C.2     1  UNL1        0.2681
     15 O           7.5051   -1.3713   30.2926 O.2     1  UNL1       -0.2682
     16 N           5.3528   -1.1072   28.8616 N.am    1  UNL1       -0.2748
     17 C           4.4024   -1.6449   27.8331 C.3     1  UNL1        0.0938
     18 C           3.2005   -0.8429   27.4306 C.3     1  UNL1        0.0216
     19 C           2.9488    0.4968   28.0565 C.3     1  UNL1        0.0035
     20 C           3.8991    1.0346   29.0849 C.3     1  UNL1        0.0216
     21 C           5.1011    0.2326   29.4875 C.3     1  UNL1        0.0938
     22 C           8.9188   -4.1934   22.1297 C.3     1  UNL1        0.0468
     23 C           8.1225   -4.2455   20.8596 C.3     1  UNL1        0.0770
     24 N           4.5070   -1.6132   20.3610 N.pl3   1  UNL1       -0.3046
     25 C           4.3409   -3.0979   20.4956 C.3     1  UNL1        0.1081
     26 C           5.5461   -3.9754   20.6618 C.3     1  UNL1        0.0938
     27 N           6.9174   -3.3681   20.6934 N.3     1  UNL1       -0.2695
     28 C           7.0834   -1.8834   20.5588 C.3     1  UNL1        0.0938
     29 C           5.8782   -1.0060   20.3926 C.3     1  UNL1        0.1081
     30 C           0.4616    1.4069   25.0262 C.3     1  UNL1        0.0521
     31 C           1.1717    0.8712   23.8183 C.ar    1  UNL1        0.0593
     32 C           2.3768   -0.0062   23.9845 C.ar    1  UNL1        0.0148
     33 C           3.0869   -0.5419   22.7767 C.ar    1  UNL1        0.0039
     34 C           2.5917   -0.2001   21.4026 C.ar    1  UNL1        0.0310
     35 C           3.3018   -0.7358   20.1948 C.ar    1  UNL1        0.0493
     36 C           2.8066   -0.3940   18.8207 C.ar    1  UNL1        0.0146
     37 C           1.6014    0.4834   18.6545 C.ar    1  UNL1        0.0028
     38 C           0.8914    1.0190   19.8624 C.ar    1  UNL1        0.0192
     39 C           1.3865    0.6773   21.2364 C.ar    1  UNL1        0.0821
     40 N           0.6765    1.2130   22.4442 N.ar    1  UNL1       -0.2496
@<TRIPOS>BOND
     1    30    31    1
     2    31    32   ar
     3    32    33   ar
     4    33    34   ar
     5    34    35   ar
     6    35    24    1
     7    24    25    1
     8    25    26    1
     9    26    27    1
    10    27    23    1
    11    23    22    1
    12    22     1    1
    13     1     2   ar
    14     2     3   ar
    15     3     4   ar
    16     4     5   ar
    17     5     6   ar
    18     6     7    1
    19     7     8    1
    20     8     9    1
    21     9    10   ar
    22    10    14    1
    23    14    15    2
    24    14    16   am
    25    16    17    1
    26    17    18    1
    27    18    19    1
    28    19    20    1
    29    20    21    1
    30    10    11   ar
    31    11    12   ar
    32    12    13   ar
    33    27    28    1
    34    28    29    1
    35    35    36   ar
    36    36    37   ar
    37    37    38   ar
    38    38    39   ar
    39    39    40   ar
    40    40    31   ar
    41    39    34   ar
    42    29    24    1
    43     6     1   ar
    44    13     9   ar
    45    13     5    1
    46    21    16    1
@<TRIPOS>MOLECULE
*****
 40 46 0 0 0
SMALL
GASTEIGER

@<TRIPOS>ATOM
      1 C          -0.7561    3.0316   23.3255 C.ar    1  UNL1        0.0146
      2 C          -2.0215    3.6042   22.7589 C.ar    1  UNL1       -0.0011
      3 C          -2.2980    3.5025   21.2881 C.ar    1  UNL1        0.0014
      4 C          -1.3091    2.8282   20.3840 C.ar    1  UNL1        0.0206
      5 C          -0.0438    2.2556   20.9505 C.ar    1  UNL1        0.0989
      6 C           0.2327    2.3573   22.4213 C.ar    1  UNL1        0.1511
      7 O           1.4981    1.7847   22.9879 O.3     1  UNL1       -0.4678
      8 C           2.4869    1.1104   22.0838 C.3     1  UNL1        0.2510
      9 C           2.2104    1.0087   20.6129 C.ar    1  UNL1        0.1087
     10 C           2.9925    0.4056   19.4840 C.ar    1  UNL1        0.1518
     11 N           2.2106    0.6055   18.2197 N.ar    1  UNL1       -0.2192
     12 C           0.9452    1.3321   18.5672 C.ar    1  UNL1        0.1828
     13 N           0.9450    1.5813   20.0464 N.ar    1  UNL1       -0.2851
     14 C           4.3230   -0.2774   19.5992 C.2     1  UNL1        0.2681
     15 O           5.5687    0.5350   19.7952 O.2     1  UNL1       -0.2682
     16 N           4.4078   -1.7728   19.5184 N.am    1  UNL1       -0.2748
     17 C           3.1622   -2.5852   19.3224 C.3     1  UNL1        0.0938
     18 C           3.2471   -4.0807   19.2416 C.3     1  UNL1        0.0216
     19 C           4.5776   -4.7637   19.3568 C.3     1  UNL1        0.0035
     20 C           5.8232   -3.9513   19.5527 C.3     1  UNL1        0.0216
     21 C           5.7383   -2.4558   19.6336 C.3     1  UNL1        0.0938
     22 C          -0.4796    3.1333   24.7963 C.3     1  UNL1        0.0468
     23 C          -0.5909    1.9164   25.6662 C.3     1  UNL1        0.0770
     24 N           0.9962    2.0073   29.8761 N.pl3   1  UNL1       -0.3046
     25 C           1.6842    2.7912   28.7981 C.3     1  UNL1        0.1081
     26 C           1.1552    2.7609   27.3948 C.3     1  UNL1        0.0938
     27 N          -0.0619    1.9467   27.0695 N.3     1  UNL1       -0.2695
     28 C          -0.7499    1.1628   28.1475 C.3     1  UNL1        0.0938
     29 C          -0.2209    1.1931   29.5508 C.3     1  UNL1        0.1081
     30 C           5.2166   -2.2904   33.1879 C.3     1  UNL1        0.0521
     31 C           4.2937   -1.2084   32.7108 C.ar    1  UNL1        0.0593
     32 C           3.7647   -1.2387   31.3075 C.ar    1  UNL1        0.0148
     33 C           2.8419   -0.1567   30.8304 C.ar    1  UNL1        0.0039
     34 C           2.4481    0.9556   31.7565 C.ar    1  UNL1        0.0310
     35 C           1.5252    2.0376   31.2793 C.ar    1  UNL1        0.0493
     36 C           1.1315    3.1499   32.2055 C.ar    1  UNL1        0.0146
     37 C           1.6605    3.1802   33.6087 C.ar    1  UNL1        0.0028
     38 C           2.5833    2.0982   34.0859 C.ar    1  UNL1        0.0192
     39 C           2.9771    0.9859   33.1598 C.ar    1  UNL1        0.0821
     40 N           3.9000   -0.0961   33.6369 N.ar    1  UNL1       -0.2496
@<TRIPOS>BOND
     1    30    31    1
     2    31    32   ar
     3    32    33   ar
     4    33    34   ar
     5    34    35   ar
     6    35    24    1
     7    24    25    1
     8    25    26    1
     9    26    27    1
    10    27    23    1
    11    23    22    1
    12    22     1    1
    13     1     2   ar
    14     2     3   ar
    15     3     4   ar
    16     4     5   ar
    17     5     6   ar
    18     6     7    1
    19     7     8    1
    20     8     9    1
    21     9    10   ar
    22    10    14    1
    23    14    15    2
    24    14    16   am
    25    16    17    1
    26    17    18    1
    27    18    19    1
    28    19    20    1
    29    20    21    1
    30    10    11   ar
    31    11    12   ar
    32    12    13   ar
    33    27    28    1
    34    28    29    1
    35    35    36   ar
    36    36    37   ar
    37    37    38   ar
    38    38    39   ar
    39    39    40   ar
    40    40    31   ar
    41    39    34   ar
    42    29    24    1
    43     6     1   ar
    44    13     9   ar
    45    13     5    1
    46    21    16    1
@<TRIPOS>MOLECULE
*****
 40 46 0 0 0
SMALL
GASTEIGER

@<TRIPOS>ATOM
      1 C           8.4739   -5.0775   23.1259 C.ar    1  UNL1        0.0146
      2 C           8.7869   -6.5129   22.8232 C.ar    1  UNL1       -0.0011
      3 C           8.6182   -7.5576   23.8862 C.ar    1  UNL1        0.0014
      4 C           8.1365   -7.1669   25.2520 C.ar    1  UNL1        0.0206
      5 C           7.8234   -5.7315   25.5547 C.ar    1  UNL1        0.0989
      6 C           7.9921   -4.6868   24.4916 C.ar    1  UNL1        0.1511
      7 O           7.6791   -3.2514   24.7943 O.3     1  UNL1       -0.4678
      8 C           7.1973   -2.8607   26.1601 C.3     1  UNL1        0.2510
      9 C           7.0287   -3.9055   27.2232 C.ar    1  UNL1        0.1087
     10 C           6.5748   -3.8210   28.6503 C.ar    1  UNL1        0.1518
     11 N           6.6073   -5.2042   29.2297 N.ar    1  UNL1       -0.2192
     12 C           7.0813   -6.1435   28.1605 C.ar    1  UNL1        0.1828
     13 N           7.3417   -5.3409   26.9204 N.ar    1  UNL1       -0.2851
     14 C           6.1610   -2.5725   29.3715 C.2     1  UNL1        0.2681
     15 O           5.0634   -1.7143   28.8161 O.2     1  UNL1       -0.2682
     16 N           6.8450   -2.1824   30.6482 N.am    1  UNL1       -0.2748
     17 C           7.9427   -3.0405   31.2037 C.3     1  UNL1        0.0938
     18 C           8.6266   -2.6503   32.4804 C.3     1  UNL1        0.0216
     19 C           8.2128   -1.4018   33.2016 C.3     1  UNL1        0.0035
     20 C           7.1152   -0.5436   32.6461 C.3     1  UNL1        0.0216
     21 C           6.4312   -0.9339   31.3694 C.3     1  UNL1        0.0938
     22 C           8.6425   -4.0327   22.0628 C.3     1  UNL1        0.0468
     23 C           7.8331   -4.1079   20.8022 C.3     1  UNL1        0.0770
     24 N           4.2138   -1.4830   20.2922 N.pl3   1  UNL1       -0.3046
     25 C           4.0881   -2.9705   20.1457 C.3     1  UNL1        0.1081
     26 C           5.2945   -3.8455   20.3156 C.3     1  UNL1        0.0938
     27 N           6.6267   -3.2330   20.6322 N.3     1  UNL1       -0.2695
     28 C           6.7523   -1.7454   20.7788 C.3     1  UNL1        0.0938
     29 C           5.5459   -0.8705   20.6088 C.3     1  UNL1        0.1081
     30 C           0.2104    1.6150   24.9425 C.3     1  UNL1        0.0521
     31 C           0.9096    1.0592   23.7375 C.ar    1  UNL1        0.0593
     32 C           2.1161    0.1843   23.9074 C.ar    1  UNL1        0.0148
     33 C           2.8153   -0.3715   22.7024 C.ar    1  UNL1        0.0039
     34 C           2.3081   -0.0523   21.3273 C.ar    1  UNL1        0.0310
     35 C           3.0073   -0.6081   20.1222 C.ar    1  UNL1        0.0493
     36 C           2.5001   -0.2889   18.7471 C.ar    1  UNL1        0.0146
     37 C           1.2936    0.5861   18.5771 C.ar    1  UNL1        0.0028
     38 C           0.5944    1.1418   19.7822 C.ar    1  UNL1        0.0192
     39 C           1.1016    0.8227   21.1573 C.ar    1  UNL1        0.0821
     40 N           0.4024    1.3784   22.3623 N.ar    1  UNL1       -0.2496
@<TRIPOS>BOND
     1    30    31    1
     2    31    32   ar
     3    32    33   ar
     4    33    34   ar
     5    34    35   ar
     6    35    24    1
     7    24    25    1
     8    25    26    1
     9    26    27    1
    10    27    23    1
    11    23    22    1
    12    22     1    1
    13     1     2   ar
    14     2     3   ar
    15     3     4   ar
    16     4     5   ar
    17     5     6   ar
    18     6     7    1
    19     7     8    1
    20     8     9    1
    21     9    10   ar
    22    10    14    1
    23    14    15    2
    24    14    16   am
    25    16    17    1
    26    17    18    1
    27    18    19    1
    28    19    20    1
    29    20    21    1
    30    10    11   ar
    31    11    12   ar
    32    12    13   ar
    33    27    28    1
    34    28    29    1
    35    35    36   ar
    36    36    37   ar
    37    37    38   ar
    38    38    39   ar
    39    39    40   ar
    40    40    31   ar
    41    39    34   ar
    42    29    24    1
    43     6     1   ar
    44    13     9   ar
    45    13     5    1
    46    21    16    1
@<TRIPOS>MOLECULE
*****
 40 46 0 0 0
SMALL
GASTEIGER

@<TRIPOS>ATOM
      1 C           7.1958   -4.7624   28.7893 C.ar    1  UNL1        0.0146
      2 C           7.7489   -5.4786   29.9856 C.ar    1  UNL1       -0.0011
      3 C           7.5058   -4.9364   31.3629 C.ar    1  UNL1        0.0014
      4 C           6.7095   -3.6782   31.5439 C.ar    1  UNL1        0.0206
      5 C           6.1564   -2.9620   30.3476 C.ar    1  UNL1        0.0989
      6 C           6.3996   -3.5042   28.9703 C.ar    1  UNL1        0.1511
      7 O           5.8465   -2.7880   27.7739 O.3     1  UNL1       -0.4678
      8 C           5.0502   -1.5298   27.9548 C.3     1  UNL1        0.2510
      9 C           4.8071   -0.9876   29.3322 C.ar    1  UNL1        0.1087
     10 C           4.0654    0.2222   29.8181 C.ar    1  UNL1        0.1518
     11 N           4.1602    0.2538   31.3148 N.ar    1  UNL1       -0.2192
     12 C           4.9603   -0.9365   31.7538 C.ar    1  UNL1        0.1828
     13 N           5.3602   -1.7038   30.5285 N.ar    1  UNL1       -0.2851
     14 C           3.3540    1.2245   28.9583 C.2     1  UNL1        0.2681
     15 O           4.1025    2.3970   28.3972 O.2     1  UNL1       -0.2682
     16 N           1.8939    1.0542   28.6596 N.am    1  UNL1       -0.2748
     17 C           1.1453   -0.1183   29.2207 C.3     1  UNL1        0.0938
     18 C          -0.3148   -0.2885   28.9219 C.3     1  UNL1        0.0216
     19 C          -1.0263    0.7138   28.0621 C.3     1  UNL1        0.0035
     20 C          -0.2777    1.8863   27.5011 C.3     1  UNL1        0.0216
     21 C           1.1824    2.0565   27.7998 C.3     1  UNL1        0.0938
     22 C           7.4390   -5.3046   27.4120 C.3     1  UNL1        0.0468
     23 C           8.4676   -4.6669   26.5258 C.3     1  UNL1        0.0770
     24 N           7.2992   -3.1469   22.4546 N.pl3   1  UNL1       -0.3046
     25 C           7.7126   -2.1813   23.5254 C.3     1  UNL1        0.1081
     26 C           8.1021   -2.6880   24.8826 C.3     1  UNL1        0.0938
     27 N           8.0781   -4.1602   25.1688 N.3     1  UNL1       -0.2695
     28 C           7.6647   -5.1258   24.0979 C.3     1  UNL1        0.0938
     29 C           7.2752   -4.6192   22.7408 C.3     1  UNL1        0.1081
     30 C           1.3497   -0.5985   20.1396 C.3     1  UNL1        0.0521
     31 C           2.7397   -1.1090   20.3791 C.ar    1  UNL1        0.0593
     32 C           3.1292   -1.6156   21.7361 C.ar    1  UNL1        0.0148
     33 C           4.5192   -2.1261   21.9756 C.ar    1  UNL1        0.0039
     34 C           5.5197   -2.1298   20.8581 C.ar    1  UNL1        0.0310
     35 C           6.9097   -2.6402   21.0976 C.ar    1  UNL1        0.0493
     36 C           7.9102   -2.6440   19.9800 C.ar    1  UNL1        0.0146
     37 C           7.5207   -2.1373   18.6230 C.ar    1  UNL1        0.0028
     38 C           6.1307   -1.6269   18.3835 C.ar    1  UNL1        0.0192
     39 C           5.1302   -1.6231   19.5010 C.ar    1  UNL1        0.0821
     40 N           3.7402   -1.1127   19.2615 N.ar    1  UNL1       -0.2496
@<TRIPOS>BOND
     1    30    31    1
     2    31    32   ar
     3    32    33   ar
     4    33    34   ar
     5    34    35   ar
     6    35    24    1
     7    24    25    1
     8    25    26    1
     9    26    27    1
    10    27    23    1
    11    23    22    1
    12    22     1    1
    13     1     2   ar
    14     2     3   ar
    15     3     4   ar
    16     4     5   ar
    17     5     6   ar
    18     6     7    1
    19     7     8    1
    20     8     9    1
    21     9    10   ar
    22    10    14    1
    23    14    15    2
    24    14    16   am
    25    16    17    1
    26    17    18    1
    27    18    19    1
    28    19    20    1
    29    20    21    1
    30    10    11   ar
    31    11    12   ar
    32    12    13   ar
    33    27    28    1
    34    28    29    1
    35    35    36   ar
    36    36    37   ar
    37    37    38   ar
    38    38    39   ar
    39    39    40   ar
    40    40    31   ar
    41    39    34   ar
    42    29    24    1
    43     6     1   ar
    44    13     9   ar
    45    13     5    1
    46    21    16    1
