@<TRIPOS>MOLECULE
*****
 31 33 0 0 0
SMALL
GASTEIGER

@<TRIPOS>ATOM
      1 N           2.2155    0.8321   21.7382 N.am    1  UNL1       -0.2804
      2 C           1.8238   -0.1370   20.6625 C.2     1  UNL1        0.2495
      3 O           0.3748   -0.4264   20.4049 O.2     1  UNL1       -0.2698
      4 H           3.1666    1.0220   21.9073 H       1  UNL1        0.1552
      5 C          -0.9569    2.8718   24.1929 C.ar    1  UNL1        0.0002
      6 C          -0.7527    3.2608   22.7587 C.ar    1  UNL1        0.0013
      7 C           0.3047    2.5809   21.9405 C.ar    1  UNL1        0.0147
      8 C           1.1580    1.5120   22.5565 C.ar    1  UNL1        0.0505
      9 C           0.9538    1.1230   23.9907 C.ar    1  UNL1        0.0147
     10 C          -0.1037    1.8029   24.8089 C.ar    1  UNL1        0.0013
     11 C          -5.9216    4.2373   24.8915 C.3     1  UNL1        0.0521
     12 C          -4.4968    4.2344   25.3604 C.ar    1  UNL1        0.0594
     13 C          -3.4393    3.5545   24.5422 C.ar    1  UNL1        0.0147
     14 C          -2.0145    3.5517   25.0112 C.ar    1  UNL1        0.0027
     15 C          -1.6471    4.2287   26.2983 C.ar    1  UNL1        0.0207
     16 C          -2.7046    4.9086   27.1165 C.ar    1  UNL1        0.0984
     17 N          -4.1295    4.9114   26.6475 N.ar    1  UNL1       -0.2481
     18 C           2.8813   -0.8169   19.8442 C.ar    1  UNL1        0.0536
     19 C           3.0015   -2.3119   19.8668 C.ar    1  UNL1        0.0084
     20 C           4.0590   -2.9917   19.0485 C.ar    1  UNL1        0.0715
     21 C           4.9963   -2.1766   18.2077 C.ar    1  UNL1        0.0077
     22 C           4.8760   -0.6816   18.1851 C.ar    1  UNL1        0.0715
     23 C           3.8186   -0.0017   19.0033 C.ar    1  UNL1        0.0084
     24 C           4.1793   -4.4867   19.0712 C.3     1  UNL1        0.4186
     25 F           4.2995   -5.9817   19.0938 F       1  UNL1       -0.1659
     26 F           5.6529   -4.3644   19.3230 F       1  UNL1       -0.1659
     27 F           2.7056   -4.6091   18.8194 F       1  UNL1       -0.1659
     28 C           5.8133    0.1336   17.3442 C.3     1  UNL1        0.4186
     29 F           6.7506    0.9487   16.5033 F       1  UNL1       -0.1659
     30 F           6.7178   -1.0543   17.2008 F       1  UNL1       -0.1659
     31 F           4.9087    1.3215   17.4876 F       1  UNL1       -0.1659
@<TRIPOS>BOND
     1    11    12    1
     2    12    13   ar
     3    13    14   ar
     4    14     5    1
     5     5     6   ar
     6     6     7   ar
     7     7     8   ar
     8     8     1    1
     9     1     2   am
    10     2     3    2
    11     2    18    1
    12    18    19   ar
    13    19    20   ar
    14    20    24    1
    15    24    25    1
    16    24    26    1
    17    24    27    1
    18    20    21   ar
    19    21    22   ar
    20    22    28    1
    21    28    29    1
    22    28    30    1
    23    28    31    1
    24    22    23   ar
    25     8     9   ar
    26     9    10   ar
    27    14    15   ar
    28    15    16   ar
    29    16    17   ar
    30    17    12   ar
    31    10     5   ar
    32    23    18   ar
    33     1     4    1
@<TRIPOS>MOLECULE
*****
 31 33 0 0 0
SMALL
GASTEIGER

@<TRIPOS>ATOM
      1 N           2.0936    1.0337   21.6136 N.am    1  UNL1       -0.2804
      2 C           1.7343   -0.0204   20.6087 C.2     1  UNL1        0.2495
      3 O           0.3022   -0.4293   20.4302 O.2     1  UNL1       -0.2698
      4 H           3.0335    1.3021   21.7308 H       1  UNL1        0.1552
      5 C          -1.1247    2.9693   24.0926 C.ar    1  UNL1        0.0002
      6 C          -0.9946    3.3065   22.6369 C.ar    1  UNL1        0.0013
      7 C           0.0782    2.6614   21.8105 C.ar    1  UNL1        0.0147
      8 C           1.0208    1.6789   22.4399 C.ar    1  UNL1        0.0505
      9 C           0.8907    1.3416   23.8957 C.ar    1  UNL1        0.0147
     10 C          -0.1821    1.9868   24.7221 C.ar    1  UNL1        0.0013
     11 C          -6.0999    4.3166   24.7501 C.3     1  UNL1        0.0521
     12 C          -4.6852    4.2882   25.2477 C.ar    1  UNL1        0.0594
     13 C          -3.6124    3.6430   24.4214 C.ar    1  UNL1        0.0147
     14 C          -2.1976    3.6145   24.9190 C.ar    1  UNL1        0.0027
     15 C          -1.8556    4.2312   26.2429 C.ar    1  UNL1        0.0207
     16 C          -2.9284    4.8764   27.0691 C.ar    1  UNL1        0.0984
     17 N          -4.3432    4.9049   26.5715 N.ar    1  UNL1       -0.2481
     18 C           2.8070   -0.6656   19.7824 C.ar    1  UNL1        0.0536
     19 C           3.7087    0.1792   18.9319 C.ar    1  UNL1        0.0084
     20 C           4.7815   -0.4660   18.1055 C.ar    1  UNL1        0.0715
     21 C           4.9526   -1.9560   18.1297 C.ar    1  UNL1        0.0077
     22 C           4.0509   -2.8008   18.9801 C.ar    1  UNL1        0.0715
     23 C           2.9782   -2.1556   19.8065 C.ar    1  UNL1        0.0084
     24 C           5.6832    0.3788   17.2550 C.3     1  UNL1        0.4186
     25 F           6.5848    1.2236   16.4046 F       1  UNL1       -0.1659
     26 F           4.8010    1.5669   17.5000 F       1  UNL1       -0.1659
     27 F           6.5653   -0.8094   17.0101 F       1  UNL1       -0.1659
     28 C           4.2220   -4.2908   19.0043 C.3     1  UNL1        0.4186
     29 F           4.3932   -5.7809   19.0284 F       1  UNL1       -0.1659
     30 F           5.7069   -4.1183   19.1281 F       1  UNL1       -0.1659
     31 F           2.7372   -4.4633   18.8804 F       1  UNL1       -0.1659
@<TRIPOS>BOND
     1    11    12    1
     2    12    13   ar
     3    13    14   ar
     4    14     5    1
     5     5     6   ar
     6     6     7   ar
     7     7     8   ar
     8     8     1    1
     9     1     2   am
    10     2     3    2
    11     2    18    1
    12    18    19   ar
    13    19    20   ar
    14    20    24    1
    15    24    25    1
    16    24    26    1
    17    24    27    1
    18    20    21   ar
    19    21    22   ar
    20    22    28    1
    21    28    29    1
    22    28    30    1
    23    28    31    1
    24    22    23   ar
    25     8     9   ar
    26     9    10   ar
    27    14    15   ar
    28    15    16   ar
    29    16    17   ar
    30    17    12   ar
    31    10     5   ar
    32    23    18   ar
    33     1     4    1
@<TRIPOS>MOLECULE
*****
 31 33 0 0 0
SMALL
GASTEIGER

@<TRIPOS>ATOM
      1 N          -1.2004    2.0763   20.6256 N.am    1  UNL1       -0.2804
      2 C          -1.1741    2.9687   21.8309 C.2     1  UNL1        0.2495
      3 O           0.1325    3.3067   22.4855 O.2     1  UNL1       -0.2698
      4 H          -2.0580    1.8545   20.1960 H       1  UNL1        0.1552
      5 C           2.6405    0.4130   18.9731 C.ar    1  UNL1        0.0002
      6 C           1.7915   -0.4233   19.8840 C.ar    1  UNL1        0.0013
      7 C           0.5112    0.1311   20.4348 C.ar    1  UNL1        0.0147
      8 C           0.0799    1.5219   20.0747 C.ar    1  UNL1        0.0505
      9 C           0.9288    2.3583   19.1638 C.ar    1  UNL1        0.0147
     10 C           2.2092    1.8038   18.6130 C.ar    1  UNL1        0.0013
     11 C           7.0859    1.0906   16.3693 C.3     1  UNL1        0.0521
     12 C           6.1435    0.1974   17.1204 C.ar    1  UNL1        0.0594
     13 C           4.8632    0.7518   17.6712 C.ar    1  UNL1        0.0147
     14 C           3.9208   -0.1414   18.4222 C.ar    1  UNL1        0.0027
     15 C           4.2587   -1.5891   18.6224 C.ar    1  UNL1        0.0207
     16 C           5.5390   -2.1435   18.0716 C.ar    1  UNL1        0.0984
     17 N           6.4814   -1.2502   17.3206 N.ar    1  UNL1       -0.2481
     18 C          -2.4544    3.5231   22.3818 C.ar    1  UNL1        0.0536
     19 C          -3.4842    4.0961   21.4538 C.ar    1  UNL1        0.0084
     20 C          -4.7646    4.6505   22.0047 C.ar    1  UNL1        0.0715
     21 C          -5.0150    4.6320   23.4835 C.ar    1  UNL1        0.0077
     22 C          -3.9851    4.0590   24.4115 C.ar    1  UNL1        0.0715
     23 C          -2.7049    3.5046   23.8606 C.ar    1  UNL1        0.0084
     24 C          -5.7944    5.2234   21.0767 C.3     1  UNL1        0.4186
     25 F          -6.8243    5.7964   20.1488 F       1  UNL1       -0.1659
     26 F          -6.8761    4.5240   21.8454 F       1  UNL1       -0.1659
     27 F          -4.7128    5.9229   20.3081 F       1  UNL1       -0.1659
     28 C          -4.2356    4.0405   25.8903 C.3     1  UNL1        0.4186
     29 F          -4.4859    4.0219   27.3692 F       1  UNL1       -0.1659
     30 F          -2.8933    3.4080   26.1096 F       1  UNL1       -0.1659
     31 F          -5.5778    4.6730   25.6709 F       1  UNL1       -0.1659
@<TRIPOS>BOND
     1    11    12    1
     2    12    13   ar
     3    13    14   ar
     4    14     5    1
     5     5     6   ar
     6     6     7   ar
     7     7     8   ar
     8     8     1    1
     9     1     2   am
    10     2     3    2
    11     2    18    1
    12    18    19   ar
    13    19    20   ar
    14    20    24    1
    15    24    25    1
    16    24    26    1
    17    24    27    1
    18    20    21   ar
    19    21    22   ar
    20    22    28    1
    21    28    29    1
    22    28    30    1
    23    28    31    1
    24    22    23   ar
    25     8     9   ar
    26     9    10   ar
    27    14    15   ar
    28    15    16   ar
    29    16    17   ar
    30    17    12   ar
    31    10     5   ar
    32    23    18   ar
    33     1     4    1
@<TRIPOS>MOLECULE
*****
 31 33 0 0 0
SMALL
GASTEIGER

@<TRIPOS>ATOM
      1 N           4.0852   -1.2013   24.6240 N.am    1  UNL1       -0.2804
      2 C           4.5665   -2.3008   23.7242 C.2     1  UNL1        0.2495
      3 O           5.5157   -3.3373   24.2481 O.2     1  UNL1       -0.2698
      4 H           3.4622   -0.5210   24.2800 H       1  UNL1        0.1552
      5 C           5.4891   -1.0124   28.8952 C.ar    1  UNL1        0.0002
      6 C           4.0320   -1.1994   28.5922 C.ar    1  UNL1        0.0013
      7 C           3.5640   -1.2623   27.1685 C.ar    1  UNL1        0.0147
      8 C           4.5532   -1.1383   26.0477 C.ar    1  UNL1        0.0505
      9 C           6.0103   -0.9513   26.3506 C.ar    1  UNL1        0.0147
     10 C           6.4783   -0.8884   27.7744 C.ar    1  UNL1        0.0013
     11 C           4.5377   -1.5665   33.9733 C.3     1  UNL1        0.0521
     12 C           5.4814   -1.2265   32.8580 C.ar    1  UNL1        0.0594
     13 C           5.0135   -1.2894   31.4343 C.ar    1  UNL1        0.0147
     14 C           5.9571   -0.9494   30.3190 C.ar    1  UNL1        0.0027
     15 C           7.3686   -0.5464   30.6274 C.ar    1  UNL1        0.0207
     16 C           7.8365   -0.4835   32.0511 C.ar    1  UNL1        0.0984
     17 N           6.8929   -0.8235   33.1664 N.ar    1  UNL1       -0.2481
     18 C           4.0985   -2.3638   22.3005 C.ar    1  UNL1        0.0536
     19 C           3.2163   -1.2814   21.7524 C.ar    1  UNL1        0.0084
     20 C           2.7483   -1.3445   20.3286 C.ar    1  UNL1        0.0715
     21 C           3.1625   -2.4898   19.4530 C.ar    1  UNL1        0.0077
     22 C           4.0446   -3.5721   20.0011 C.ar    1  UNL1        0.0715
     23 C           4.5126   -3.5091   21.4248 C.ar    1  UNL1        0.0084
     24 C           1.8662   -0.2622   19.7805 C.3     1  UNL1        0.4186
     25 F           0.9840    0.8202   19.2324 F       1  UNL1       -0.1659
     26 F           3.0653    0.4129   19.1836 F       1  UNL1       -0.1659
     27 F           0.6670   -0.9372   20.3775 F       1  UNL1       -0.1659
     28 C           4.4588   -4.7174   19.1255 C.3     1  UNL1        0.4186
     29 F           4.8730   -5.8627   18.2498 F       1  UNL1       -0.1659
     30 F           5.3967   -3.8115   18.3842 F       1  UNL1       -0.1659
     31 F           3.5209   -5.6233   19.8668 F       1  UNL1       -0.1659
@<TRIPOS>BOND
     1    11    12    1
     2    12    13   ar
     3    13    14   ar
     4    14     5    1
     5     5     6   ar
     6     6     7   ar
     7     7     8   ar
     8     8     1    1
     9     1     2   am
    10     2     3    2
    11     2    18    1
    12    18    19   ar
    13    19    20   ar
    14    20    24    1
    15    24    25    1
    16    24    26    1
    17    24    27    1
    18    20    21   ar
    19    21    22   ar
    20    22    28    1
    21    28    29    1
    22    28    30    1
    23    28    31    1
    24    22    23   ar
    25     8     9   ar
    26     9    10   ar
    27    14    15   ar
    28    15    16   ar
    29    16    17   ar
    30    17    12   ar
    31    10     5   ar
    32    23    18   ar
    33     1     4    1
@<TRIPOS>MOLECULE
*****
 31 33 0 0 0
SMALL
GASTEIGER

@<TRIPOS>ATOM
      1 N           4.0608   -1.1375   24.5901 N.am    1  UNL1       -0.2804
      2 C           4.5499   -2.2428   23.7018 C.2     1  UNL1        0.2495
      3 O           5.5085   -3.2655   24.2358 O.2     1  UNL1       -0.2698
      4 H           3.4317   -0.4662   24.2396 H       1  UNL1        0.1552
      5 C           5.4694   -0.8895   28.8568 C.ar    1  UNL1        0.0002
      6 C           4.0312   -1.1938   28.5582 C.ar    1  UNL1        0.0013
      7 C           3.5617   -1.2764   27.1360 C.ar    1  UNL1        0.0147
      8 C           4.5304   -1.0548   26.0123 C.ar    1  UNL1        0.0505
      9 C           5.9685   -0.7505   26.3109 C.ar    1  UNL1        0.0147
     10 C           6.4380   -0.6679   27.7331 C.ar    1  UNL1        0.0013
     11 C           4.6036   -1.6047   33.9301 C.3     1  UNL1        0.0521
     12 C           5.5059   -1.1644   32.8157 C.ar    1  UNL1        0.0594
     13 C           5.0365   -1.2471   31.3935 C.ar    1  UNL1        0.0147
     14 C           5.9388   -0.8068   30.2791 C.ar    1  UNL1        0.0027
     15 C           7.3106   -0.2840   30.5868 C.ar    1  UNL1        0.0207
     16 C           7.7800   -0.2013   32.0091 C.ar    1  UNL1        0.0984
     17 N           6.8777   -0.6416   33.1235 N.ar    1  UNL1       -0.2481
     18 C           4.0804   -2.3255   22.2796 C.ar    1  UNL1        0.0536
     19 C           4.5006   -3.4784   21.4169 C.ar    1  UNL1        0.0084
     20 C           4.0311   -3.5610   19.9946 C.ar    1  UNL1        0.0715
     21 C           3.1414   -2.4908   19.4352 C.ar    1  UNL1        0.0077
     22 C           2.7212   -1.3379   20.2979 C.ar    1  UNL1        0.0715
     23 C           3.1907   -1.2552   21.7201 C.ar    1  UNL1        0.0084
     24 C           4.4513   -4.7139   19.1319 C.3     1  UNL1        0.4186
     25 F           4.8715   -5.8667   18.2692 F       1  UNL1       -0.1659
     26 F           3.5054   -5.6125   19.8720 F       1  UNL1       -0.1659
     27 F           5.3971   -3.8152   18.3917 F       1  UNL1       -0.1659
     28 C           1.8315   -0.2677   19.7385 C.3     1  UNL1        0.4186
     29 F           0.9416    0.8025   19.1790 F       1  UNL1       -0.1659
     30 F           0.6395   -0.9346   20.3584 F       1  UNL1       -0.1659
     31 F           3.0234    0.3992   19.1186 F       1  UNL1       -0.1659
@<TRIPOS>BOND
     1    11    12    1
     2    12    13   ar
     3    13    14   ar
     4    14     5    1
     5     5     6   ar
     6     6     7   ar
     7     7     8   ar
     8     8     1    1
     9     1     2   am
    10     2     3    2
    11     2    18    1
    12    18    19   ar
    13    19    20   ar
    14    20    24    1
    15    24    25    1
    16    24    26    1
    17    24    27    1
    18    20    21   ar
    19    21    22   ar
    20    22    28    1
    21    28    29    1
    22    28    30    1
    23    28    31    1
    24    22    23   ar
    25     8     9   ar
    26     9    10   ar
    27    14    15   ar
    28    15    16   ar
    29    16    17   ar
    30    17    12   ar
    31    10     5   ar
    32    23    18   ar
    33     1     4    1
@<TRIPOS>MOLECULE
*****
 31 33 0 0 0
SMALL
GASTEIGER

@<TRIPOS>ATOM
      1 N           6.1191   -2.5785   22.4022 N.am    1  UNL1       -0.2804
      2 C           4.9914   -2.9760   21.4966 C.2     1  UNL1        0.2495
      3 O           4.4182   -4.3599   21.5757 O.2     1  UNL1       -0.2698
      4 H           6.4953   -1.6702   22.3503 H       1  UNL1        0.1552
      5 C           7.7828   -5.5375   25.3563 C.ar    1  UNL1        0.0002
      6 C           8.1635   -5.6284   23.9083 C.ar    1  UNL1        0.0013
      7 C           7.6090   -4.6421   22.9236 C.ar    1  UNL1        0.0147
      8 C           6.6737   -3.5648   23.3869 C.ar    1  UNL1        0.0505
      9 C           6.2930   -3.4738   24.8350 C.ar    1  UNL1        0.0147
     10 C           6.8476   -4.4602   25.8197 C.ar    1  UNL1        0.0013
     11 C           9.1054   -6.7754   30.2265 C.3     1  UNL1        0.0521
     12 C           8.9987   -7.1428   28.7761 C.ar    1  UNL1        0.0594
     13 C           8.4441   -6.1565   27.7914 C.ar    1  UNL1        0.0147
     14 C           8.3374   -6.5238   26.3410 C.ar    1  UNL1        0.0027
     15 C           8.7853   -7.8775   25.8753 C.ar    1  UNL1        0.0207
     16 C           9.3399   -8.8638   26.8599 C.ar    1  UNL1        0.0984
     17 N           9.4465   -8.4964   28.3103 N.ar    1  UNL1       -0.2481
     18 C           4.4368   -1.9897   20.5120 C.ar    1  UNL1        0.0536
     19 C           5.2845   -1.5124   19.3702 C.ar    1  UNL1        0.0084
     20 C           4.7299   -0.5261   18.3855 C.ar    1  UNL1        0.0715
     21 C           3.3277   -0.0171   18.5426 C.ar    1  UNL1        0.0077
     22 C           2.4800   -0.4944   19.6844 C.ar    1  UNL1        0.0715
     23 C           3.0346   -1.4807   20.6690 C.ar    1  UNL1        0.0084
     24 C           5.5775   -0.0488   17.2437 C.3     1  UNL1        0.4186
     25 F           6.4252    0.4285   16.1019 F       1  UNL1       -0.1659
     26 F           6.6725    0.3067   18.2052 F       1  UNL1       -0.1659
     27 F           4.4825   -0.4043   16.2821 F       1  UNL1       -0.1659
     28 C           1.0778    0.0146   19.8415 C.3     1  UNL1        0.4186
     29 F          -0.3244    0.5237   19.9985 F       1  UNL1       -0.1659
     30 F           0.9988    0.2532   18.3627 F       1  UNL1       -0.1659
     31 F           1.1569   -0.2239   21.3202 F       1  UNL1       -0.1659
@<TRIPOS>BOND
     1    11    12    1
     2    12    13   ar
     3    13    14   ar
     4    14     5    1
     5     5     6   ar
     6     6     7   ar
     7     7     8   ar
     8     8     1    1
     9     1     2   am
    10     2     3    2
    11     2    18    1
    12    18    19   ar
    13    19    20   ar
    14    20    24    1
    15    24    25    1
    16    24    26    1
    17    24    27    1
    18    20    21   ar
    19    21    22   ar
    20    22    28    1
    21    28    29    1
    22    28    30    1
    23    28    31    1
    24    22    23   ar
    25     8     9   ar
    26     9    10   ar
    27    14    15   ar
    28    15    16   ar
    29    16    17   ar
    30    17    12   ar
    31    10     5   ar
    32    23    18   ar
    33     1     4    1
@<TRIPOS>MOLECULE
*****
 31 33 0 0 0
SMALL
GASTEIGER

@<TRIPOS>ATOM
      1 N           6.1022   -2.5683   22.3927 N.am    1  UNL1       -0.2804
      2 C           4.9818   -2.9718   21.4807 C.2     1  UNL1        0.2495
      3 O           4.4240   -4.3626   21.5478 O.2     1  UNL1       -0.2698
      4 H           6.4683   -1.6554   22.3487 H       1  UNL1        0.1552
      5 C           7.7904   -5.5301   25.3300 C.ar    1  UNL1        0.0002
      6 C           8.1666   -5.6138   23.8803 C.ar    1  UNL1        0.0013
      7 C           7.6039   -4.6266   22.9012 C.ar    1  UNL1        0.0147
      8 C           6.6649   -3.5555   23.3718 C.ar    1  UNL1        0.0505
      9 C           6.2888   -3.4718   24.8215 C.ar    1  UNL1        0.0147
     10 C           6.8515   -4.4592   25.8005 C.ar    1  UNL1        0.0013
     11 C           9.0995   -6.7944   30.1970 C.3     1  UNL1        0.0521
     12 C           9.0077   -7.1495   28.7426 C.ar    1  UNL1        0.0594
     13 C           8.4449   -6.1623   27.7635 C.ar    1  UNL1        0.0147
     14 C           8.3532   -6.5175   26.3090 C.ar    1  UNL1        0.0027
     15 C           8.8241   -7.8599   25.8337 C.ar    1  UNL1        0.0207
     16 C           9.3868   -8.8472   26.8127 C.ar    1  UNL1        0.0984
     17 N           9.4786   -8.4920   28.2672 N.ar    1  UNL1       -0.2481
     18 C           4.4191   -1.9845   20.5017 C.ar    1  UNL1        0.0536
     19 C           3.0175   -1.4773   20.6697 C.ar    1  UNL1        0.0084
     20 C           2.4548   -0.4900   19.6905 C.ar    1  UNL1        0.0715
     21 C           3.2937   -0.0100   18.5434 C.ar    1  UNL1        0.0077
     22 C           4.6953   -0.5172   18.3754 C.ar    1  UNL1        0.0715
     23 C           5.2580   -1.5045   19.3545 C.ar    1  UNL1        0.0084
     24 C           1.0532    0.0173   19.8585 C.3     1  UNL1        0.4186
     25 F          -0.3484    0.5246   20.0265 F       1  UNL1       -0.1659
     26 F           0.9689    0.2732   18.3829 F       1  UNL1       -0.1659
     27 F           1.1375   -0.2386   21.3341 F       1  UNL1       -0.1659
     28 C           5.5341   -0.0372   17.2284 C.3     1  UNL1        0.4186
     29 F           6.3730    0.4428   16.0812 F       1  UNL1       -0.1659
     30 F           4.4404   -0.4106   16.2722 F       1  UNL1       -0.1659
     31 F           6.6279    0.3362   18.1845 F       1  UNL1       -0.1659
@<TRIPOS>BOND
     1    11    12    1
     2    12    13   ar
     3    13    14   ar
     4    14     5    1
     5     5     6   ar
     6     6     7   ar
     7     7     8   ar
     8     8     1    1
     9     1     2   am
    10     2     3    2
    11     2    18    1
    12    18    19   ar
    13    19    20   ar
    14    20    24    1
    15    24    25    1
    16    24    26    1
    17    24    27    1
    18    20    21   ar
    19    21    22   ar
    20    22    28    1
    21    28    29    1
    22    28    30    1
    23    28    31    1
    24    22    23   ar
    25     8     9   ar
    26     9    10   ar
    27    14    15   ar
    28    15    16   ar
    29    16    17   ar
    30    17    12   ar
    31    10     5   ar
    32    23    18   ar
    33     1     4    1
@<TRIPOS>MOLECULE
*****
 31 33 0 0 0
SMALL
GASTEIGER

@<TRIPOS>ATOM
      1 N          -1.2005    2.0390   20.5756 N.am    1  UNL1       -0.2804
      2 C          -1.1918    2.8927   21.8089 C.2     1  UNL1        0.2495
      3 O           0.1041    3.2016   22.4982 O.2     1  UNL1       -0.2698
      4 H          -2.0511    1.8363   20.1232 H       1  UNL1        0.1552
      5 C           2.6614    0.4047   18.9431 C.ar    1  UNL1        0.0002
      6 C           2.2122    1.7853   18.5659 C.ar    1  UNL1        0.0013
      7 C           0.9250    2.3301   19.1100 C.ar    1  UNL1        0.0147
      8 C           0.0868    1.4942   20.0314 C.ar    1  UNL1        0.0505
      9 C           0.5359    0.1137   20.4087 C.ar    1  UNL1        0.0147
     10 C           1.8233   -0.4311   19.8645 C.ar    1  UNL1        0.0013
     11 C           7.1090    1.1131   16.3515 C.3     1  UNL1        0.0521
     12 C           6.1725    0.2142   17.1031 C.ar    1  UNL1        0.0594
     13 C           4.8852    0.7589   17.6473 C.ar    1  UNL1        0.0147
     14 C           3.9487   -0.1400   18.3989 C.ar    1  UNL1        0.0027
     15 C           4.2995   -1.5835   18.6064 C.ar    1  UNL1        0.0207
     16 C           5.5868   -2.1282   18.0622 C.ar    1  UNL1        0.0984
     17 N           6.5233   -1.2293   17.3106 N.ar    1  UNL1       -0.2481
     18 C          -2.4791    3.4374   22.3531 C.ar    1  UNL1        0.0536
     19 C          -2.6841    3.5373   23.8356 C.ar    1  UNL1        0.0084
     20 C          -3.9715    4.0821   24.3797 C.ar    1  UNL1        0.0715
     21 C          -5.0537    4.5270   23.4413 C.ar    1  UNL1        0.0077
     22 C          -4.8487    4.4271   21.9587 C.ar    1  UNL1        0.0715
     23 C          -3.5615    3.8824   21.4146 C.ar    1  UNL1        0.0084
     24 C          -4.1765    4.1819   25.8623 C.3     1  UNL1        0.4186
     25 F          -4.3815    4.2818   27.3449 F       1  UNL1       -0.1659
     26 F          -2.6913    4.2442   26.0635 F       1  UNL1       -0.1659
     27 F          -5.6616    4.1197   25.6611 F       1  UNL1       -0.1659
     28 C          -5.9310    4.8720   21.0203 C.3     1  UNL1        0.4186
     29 F          -7.0134    5.3169   20.0818 F       1  UNL1       -0.1659
     30 F          -6.9695    4.3943   21.9915 F       1  UNL1       -0.1659
     31 F          -4.8925    5.3497   20.0491 F       1  UNL1       -0.1659
@<TRIPOS>BOND
     1    11    12    1
     2    12    13   ar
     3    13    14   ar
     4    14     5    1
     5     5     6   ar
     6     6     7   ar
     7     7     8   ar
     8     8     1    1
     9     1     2   am
    10     2     3    2
    11     2    18    1
    12    18    19   ar
    13    19    20   ar
    14    20    24    1
    15    24    25    1
    16    24    26    1
    17    24    27    1
    18    20    21   ar
    19    21    22   ar
    20    22    28    1
    21    28    29    1
    22    28    30    1
    23    28    31    1
    24    22    23   ar
    25     8     9   ar
    26     9    10   ar
    27    14    15   ar
    28    15    16   ar
    29    16    17   ar
    30    17    12   ar
    31    10     5   ar
    32    23    18   ar
    33     1     4    1
@<TRIPOS>MOLECULE
*****
 31 33 0 0 0
SMALL
GASTEIGER

@<TRIPOS>ATOM
      1 N           4.4768    0.2345   35.1262 N.am    1  UNL1       -0.2804
      2 C           5.0847    0.3161   36.4950 C.2     1  UNL1        0.2495
      3 O           6.2223   -0.5886   36.8656 O.2     1  UNL1       -0.2698
      4 H           3.7302    0.8284   34.8829 H       1  UNL1        0.1552
      5 C           6.0657   -2.7246   32.1314 C.ar    1  UNL1        0.0002
      6 C           4.7939   -3.0159   32.8714 C.ar    1  UNL1        0.0013
      7 C           4.2643   -2.0296   33.8697 C.ar    1  UNL1        0.0147
      8 C           5.0065   -0.7518   34.1279 C.ar    1  UNL1        0.0505
      9 C           6.2782   -0.4605   33.3878 C.ar    1  UNL1        0.0147
     10 C           6.8079   -1.4469   32.3895 C.ar    1  UNL1        0.0013
     11 C           7.0739   -4.0431   27.2074 C.3     1  UNL1        0.0521
     12 C           7.0994   -4.3702   28.6711 C.ar    1  UNL1        0.0594
     13 C           6.5699   -3.3839   29.6694 C.ar    1  UNL1        0.0147
     14 C           6.5953   -3.7110   31.1330 C.ar    1  UNL1        0.0027
     15 C           7.1504   -5.0245   31.5984 C.ar    1  UNL1        0.0207
     16 C           7.6800   -6.0108   30.6002 C.ar    1  UNL1        0.0984
     17 N           7.6545   -5.6837   29.1365 N.ar    1  UNL1       -0.2481
     18 C           4.5551    1.3025   37.4933 C.ar    1  UNL1        0.0536
     19 C           3.0786    1.4026   37.7379 C.ar    1  UNL1        0.0084
     20 C           2.5489    2.3890   38.7363 C.ar    1  UNL1        0.0715
     21 C           3.4958    3.2753   39.4899 C.ar    1  UNL1        0.0077
     22 C           4.9724    3.1751   39.2452 C.ar    1  UNL1        0.0715
     23 C           5.5020    2.1888   38.2470 C.ar    1  UNL1        0.0084
     24 C           1.0724    2.4892   38.9809 C.3     1  UNL1        0.4186
     25 F          -0.4041    2.5893   39.2255 F       1  UNL1       -0.1659
     26 F           1.1751    1.4272   40.0352 F       1  UNL1       -0.1659
     27 F           0.9698    3.5512   37.9266 F       1  UNL1       -0.1659
     28 C           5.9193    4.0613   39.9988 C.3     1  UNL1        0.4186
     29 F           6.8662    4.9476   40.7524 F       1  UNL1       -0.1659
     30 F           5.7793    5.1128   38.9382 F       1  UNL1       -0.1659
     31 F           6.0592    3.0099   41.0594 F       1  UNL1       -0.1659
@<TRIPOS>BOND
     1    11    12    1
     2    12    13   ar
     3    13    14   ar
     4    14     5    1
     5     5     6   ar
     6     6     7   ar
     7     7     8   ar
     8     8     1    1
     9     1     2   am
    10     2     3    2
    11     2    18    1
    12    18    19   ar
    13    19    20   ar
    14    20    24    1
    15    24    25    1
    16    24    26    1
    17    24    27    1
    18    20    21   ar
    19    21    22   ar
    20    22    28    1
    21    28    29    1
    22    28    30    1
    23    28    31    1
    24    22    23   ar
    25     8     9   ar
    26     9    10   ar
    27    14    15   ar
    28    15    16   ar
    29    16    17   ar
    30    17    12   ar
    31    10     5   ar
    32    23    18   ar
    33     1     4    1
