@<TRIPOS>MOLECULE
*****
 33 36 0 0 0
SMALL
GASTEIGER

@<TRIPOS>ATOM
      1 N         -11.4500   -3.2542   18.2337 N.ar    1  UNL1       -0.1943
      2 C         -11.0746   -1.8020   18.2522 C.ar    1  UNL1        0.1013
      3 C         -12.2901   -1.0139   18.6414 C.ar    1  UNL1        0.0236
      4 C         -13.4167   -1.9790   18.8635 C.ar    1  UNL1        0.0374
      5 C         -14.8483   -1.7760   19.2626 C.ar    1  UNL1        0.0058
      6 C         -15.7607   -2.9575   19.4098 C.ar    1  UNL1        0.0344
      7 C         -15.2415   -4.3419   19.1579 C.ar    1  UNL1        0.1334
      8 N         -13.8098   -4.5451   18.7587 N.ar    1  UNL1       -0.2120
      9 C         -12.8975   -3.3636   18.6116 C.ar    1  UNL1        0.1648
     10 N         -16.1539   -5.5235   19.3050 N.pl3   1  UNL1       -0.2903
     11 C         -15.5822   -6.9085   19.3742 C.3     1  UNL1        0.1095
     12 C         -16.4946   -8.0900   19.5214 C.3     1  UNL1        0.0939
     13 N         -17.9786   -7.8864   19.5994 N.3     1  UNL1       -0.2686
     14 C         -18.8909   -9.0680   19.7466 C.3     1  UNL1        0.0897
     15 C         -18.5504   -6.5014   19.5302 C.3     1  UNL1        0.0939
     16 C         -17.6380   -5.3199   19.3830 C.3     1  UNL1        0.1095
     17 C         -15.3676   -0.3915   19.5145 C.ar    1  UNL1        0.0002
     18 C         -16.4757   -0.1742   20.5020 C.ar    1  UNL1       -0.0001
     19 C         -16.9949    1.2103   20.7540 C.ar    1  UNL1        0.0039
     20 C         -16.4062    2.3776   20.0185 C.ar    1  UNL1        0.0714
     21 C         -15.2981    2.1603   19.0311 C.ar    1  UNL1        0.0039
     22 C         -14.7788    0.7757   18.7791 C.ar    1  UNL1       -0.0001
     23 C         -16.9254    3.7620   20.2704 C.3     1  UNL1        0.4186
     24 F         -17.4447    5.1465   20.5224 F       1  UNL1       -0.1659
     25 F         -16.6040    3.6173   21.7284 F       1  UNL1       -0.1659
     26 F         -17.2468    3.9069   18.8124 F       1  UNL1       -0.1659
     27 S         -10.5380   -4.3964   17.8967 S.O2    1  UNL1        0.0675
     28 O         -10.9064   -4.2633   16.4487 O.2     1  UNL1       -0.1521
     29 O         -10.1696   -4.5295   19.3446 O.2     1  UNL1       -0.1521
     30 C          -9.6260   -5.5386   17.5596 C.3     1  UNL1        0.1751
     31 C          -9.2779   -7.7019   18.9557 C.3     1  UNL1        0.0019
     32 C         -10.0263   -6.9436   17.8998 C.3     1  UNL1        0.0258
     33 C         -11.1751   -7.5903   17.1842 C.3     1  UNL1        0.0019
@<TRIPOS>BOND
     1    31    32    1
     2    32    33    1
     3    32    30    1
     4    30    27    1
     5    27    28    2
     6    27    29    2
     7    27     1    1
     8     1     2   ar
     9     2     3   ar
    10     3     4   ar
    11     4     5   ar
    12     5    17    1
    13    17    18   ar
    14    18    19   ar
    15    19    20   ar
    16    20    23    1
    17    23    24    1
    18    23    25    1
    19    23    26    1
    20    20    21   ar
    21    21    22   ar
    22     5     6   ar
    23     6     7   ar
    24     7    10    1
    25    10    11    1
    26    11    12    1
    27    12    13    1
    28    13    14    1
    29    13    15    1
    30    15    16    1
    31     7     8   ar
    32     8     9   ar
    33     9     1   ar
    34     9     4   ar
    35    22    17   ar
    36    16    10    1
@<TRIPOS>MOLECULE
*****
 33 36 0 0 0
SMALL
GASTEIGER

@<TRIPOS>ATOM
      1 N           2.6256    2.5962   34.0974 N.ar    1  UNL1       -0.1943
      2 C           1.5501    3.5420   33.6518 C.ar    1  UNL1        0.1013
      3 C           1.1486    3.1634   32.2570 C.ar    1  UNL1        0.0236
      4 C           1.9760    1.9836   31.8406 C.ar    1  UNL1        0.0374
      5 C           2.0161    1.1831   30.5726 C.ar    1  UNL1        0.0058
      6 C           2.9691    0.0321   30.4422 C.ar    1  UNL1        0.0344
      7 C           3.8819   -0.3184   31.5795 C.ar    1  UNL1        0.1334
      8 N           3.8418    0.4820   32.8476 N.ar    1  UNL1       -0.2120
      9 C           2.8888    1.6330   32.9780 C.ar    1  UNL1        0.1648
     10 N           4.8350   -1.4695   31.4490 N.pl3   1  UNL1       -0.2903
     11 C           5.0585   -2.3934   32.6094 C.3     1  UNL1        0.1095
     12 C           6.0114   -3.5444   32.4789 C.3     1  UNL1        0.0939
     13 N           6.7409   -3.7714   31.1880 N.3     1  UNL1       -0.2686
     14 C           7.6939   -4.9224   31.0576 C.3     1  UNL1        0.0897
     15 C           6.5174   -2.8475   30.0277 C.3     1  UNL1        0.0939
     16 C           5.5644   -1.6965   30.1582 C.3     1  UNL1        0.1095
     17 C           1.1033    1.5337   29.4352 C.ar    1  UNL1        0.0002
     18 C          -0.1239    0.7104   29.1772 C.ar    1  UNL1       -0.0001
     19 C          -1.0367    1.0609   28.0398 C.ar    1  UNL1        0.0039
     20 C          -0.7225    2.2347   27.1602 C.ar    1  UNL1        0.0714
     21 C           0.5046    3.0579   27.4182 C.ar    1  UNL1        0.0039
     22 C           1.4175    2.7075   28.5557 C.ar    1  UNL1       -0.0001
     23 C          -1.6353    2.5852   26.0228 C.3     1  UNL1        0.4186
     24 F          -2.5481    2.9358   24.8853 F       1  UNL1       -0.1659
     25 F          -2.5553    3.2870   26.9774 F       1  UNL1       -0.1659
     26 F          -0.7153    1.8835   25.0682 F       1  UNL1       -0.1659
     27 S           3.3166    2.6109   35.4287 S.O2    1  UNL1        0.0675
     28 O           2.0438    2.1784   36.0942 O.2     1  UNL1       -0.1521
     29 O           4.5895    3.0434   34.7633 O.2     1  UNL1       -0.1521
     30 C           4.0076    2.6256   36.7600 C.3     1  UNL1        0.1751
     31 C           3.6935    1.2086   38.9148 C.3     1  UNL1        0.0019
     32 C           4.2112    1.3448   37.5136 C.3     1  UNL1        0.0258
     33 C           4.9324    0.2000   36.8659 C.3     1  UNL1        0.0019
@<TRIPOS>BOND
     1    31    32    1
     2    32    33    1
     3    32    30    1
     4    30    27    1
     5    27    28    2
     6    27    29    2
     7    27     1    1
     8     1     2   ar
     9     2     3   ar
    10     3     4   ar
    11     4     5   ar
    12     5    17    1
    13    17    18   ar
    14    18    19   ar
    15    19    20   ar
    16    20    23    1
    17    23    24    1
    18    23    25    1
    19    23    26    1
    20    20    21   ar
    21    21    22   ar
    22     5     6   ar
    23     6     7   ar
    24     7    10    1
    25    10    11    1
    26    11    12    1
    27    12    13    1
    28    13    14    1
    29    13    15    1
    30    15    16    1
    31     7     8   ar
    32     8     9   ar
    33     9     1   ar
    34     9     4   ar
    35    22    17   ar
    36    16    10    1
@<TRIPOS>MOLECULE
*****
 33 36 0 0 0
SMALL
GASTEIGER

@<TRIPOS>ATOM
      1 N           6.9754   -3.7802   25.8909 N.ar    1  UNL1       -0.1943
      2 C           7.4692   -4.2411   24.5516 C.ar    1  UNL1        0.1013
      3 C           6.6660   -3.5415   23.4955 C.ar    1  UNL1        0.0236
      4 C           5.6757   -2.6482   24.1821 C.ar    1  UNL1        0.0374
      5 C           4.6245   -1.7195   23.6506 C.ar    1  UNL1        0.0058
      6 C           3.7647   -0.9384   24.5995 C.ar    1  UNL1        0.0344
      7 C           3.9559   -1.0859   26.0798 C.ar    1  UNL1        0.1334
      8 N           5.0071   -2.0146   26.6114 N.ar    1  UNL1       -0.2120
      9 C           5.8670   -2.7958   25.6626 C.ar    1  UNL1        0.1648
     10 N           3.0959   -0.3047   27.0287 N.pl3   1  UNL1       -0.2903
     11 C           2.5149    1.0114   26.6043 C.3     1  UNL1        0.1095
     12 C           1.6550    1.7926   27.5532 C.3     1  UNL1        0.0939
     13 N           1.3761    1.2575   28.9265 N.3     1  UNL1       -0.2686
     14 C           0.5162    2.0387   29.8753 C.3     1  UNL1        0.0897
     15 C           1.9571   -0.0586   29.3509 C.3     1  UNL1        0.0939
     16 C           2.8170   -0.8397   28.4020 C.3     1  UNL1        0.1095
     17 C           4.4333   -1.5719   22.1702 C.ar    1  UNL1        0.0002
     18 C           3.9658   -2.7406   21.3541 C.ar    1  UNL1       -0.0001
     19 C           3.7745   -2.5931   19.8738 C.ar    1  UNL1        0.0039
     20 C           4.0507   -1.2769   19.2093 C.ar    1  UNL1        0.0714
     21 C           4.5182   -0.1083   20.0253 C.ar    1  UNL1        0.0039
     22 C           4.7095   -0.2558   21.5057 C.ar    1  UNL1       -0.0001
     23 C           3.8594   -1.1294   17.7289 C.3     1  UNL1        0.4186
     24 F           3.6682   -0.9819   16.2485 F       1  UNL1       -0.1659
     25 F           2.8897   -0.0098   17.9658 F       1  UNL1       -0.1659
     26 F           4.8292   -2.2490   17.4920 F       1  UNL1       -0.1659
     27 S           7.4983   -4.2256   27.2245 S.O2    1  UNL1        0.0675
     28 O           6.4990   -5.3441   27.2427 O.2     1  UNL1       -0.1521
     29 O           8.4976   -3.1071   27.2062 O.2     1  UNL1       -0.1521
     30 C           8.0211   -4.6710   28.5580 C.3     1  UNL1        0.1751
     31 C           6.9809   -5.6493   30.7284 C.3     1  UNL1        0.0019
     32 C           7.1815   -4.4974   29.7888 C.3     1  UNL1        0.0258
     33 C           6.5425   -3.1719   30.0800 C.3     1  UNL1        0.0019
@<TRIPOS>BOND
     1    31    32    1
     2    32    33    1
     3    32    30    1
     4    30    27    1
     5    27    28    2
     6    27    29    2
     7    27     1    1
     8     1     2   ar
     9     2     3   ar
    10     3     4   ar
    11     4     5   ar
    12     5    17    1
    13    17    18   ar
    14    18    19   ar
    15    19    20   ar
    16    20    23    1
    17    23    24    1
    18    23    25    1
    19    23    26    1
    20    20    21   ar
    21    21    22   ar
    22     5     6   ar
    23     6     7   ar
    24     7    10    1
    25    10    11    1
    26    11    12    1
    27    12    13    1
    28    13    14    1
    29    13    15    1
    30    15    16    1
    31     7     8   ar
    32     8     9   ar
    33     9     1   ar
    34     9     4   ar
    35    22    17   ar
    36    16    10    1
@<TRIPOS>MOLECULE
*****
 33 36 0 0 0
SMALL
GASTEIGER

@<TRIPOS>ATOM
      1 N           3.2130   -0.7530   21.2333 N.ar    1  UNL1       -0.1943
      2 C           3.7544   -1.2057   22.5569 C.ar    1  UNL1        0.1013
      3 C           2.9990   -0.4889   23.6365 C.ar    1  UNL1        0.0236
      4 C           1.9907    0.4069   22.9801 C.ar    1  UNL1        0.0374
      5 C           0.9692    1.3502   23.5429 C.ar    1  UNL1        0.0058
      6 C           0.0800    2.1302   22.6205 C.ar    1  UNL1        0.0344
      7 C           0.2122    1.9670   21.1353 C.ar    1  UNL1        0.1334
      8 N           1.2338    1.0237   20.5724 N.ar    1  UNL1       -0.2120
      9 C           2.1230    0.2437   21.4948 C.ar    1  UNL1        0.1648
     10 N          -0.6771    2.7471   20.2129 N.pl3   1  UNL1       -0.2903
     11 C          -0.1946    3.1181   18.8419 C.3     1  UNL1        0.1095
     12 C          -1.0838    3.8981   17.9196 C.3     1  UNL1        0.0939
     13 N          -2.4555    4.3071   18.3681 N.3     1  UNL1       -0.2686
     14 C          -3.3447    5.0871   17.4457 C.3     1  UNL1        0.0897
     15 C          -2.9380    3.9360   19.7391 C.3     1  UNL1        0.0939
     16 C          -2.0488    3.1560   20.6615 C.3     1  UNL1        0.1095
     17 C           0.8369    1.5135   25.0281 C.ar    1  UNL1        0.0002
     18 C           2.0343    1.8863   25.8513 C.ar    1  UNL1       -0.0001
     19 C           1.9020    2.0496   27.3364 C.ar    1  UNL1        0.0039
     20 C           0.5724    1.8400   27.9986 C.ar    1  UNL1        0.0714
     21 C          -0.6248    1.4672   27.1754 C.ar    1  UNL1        0.0039
     22 C          -0.4926    1.3039   25.6902 C.ar    1  UNL1       -0.0001
     23 C           0.4402    2.0033   29.4837 C.3     1  UNL1        0.4186
     24 F           0.3079    2.1666   30.9689 F       1  UNL1       -0.1659
     25 F           0.4371    0.5122   29.6473 F       1  UNL1       -0.1659
     26 F           0.4433    3.4943   29.3201 F       1  UNL1       -0.1659
     27 S           3.6797   -1.2157   19.8849 S.O2    1  UNL1        0.0675
     28 O           4.9058   -0.3616   20.0162 O.2     1  UNL1       -0.1521
     29 O           2.4536   -2.0697   19.7536 O.2     1  UNL1       -0.1521
     30 C           4.1464   -1.6784   18.5366 C.3     1  UNL1        0.1751
     31 C           4.8407   -4.1758   18.7115 C.3     1  UNL1        0.0019
     32 C           5.1953   -2.7455   18.4314 C.3     1  UNL1        0.0258
     33 C           6.5988   -2.3823   18.0462 C.3     1  UNL1        0.0019
@<TRIPOS>BOND
     1    31    32    1
     2    32    33    1
     3    32    30    1
     4    30    27    1
     5    27    28    2
     6    27    29    2
     7    27     1    1
     8     1     2   ar
     9     2     3   ar
    10     3     4   ar
    11     4     5   ar
    12     5    17    1
    13    17    18   ar
    14    18    19   ar
    15    19    20   ar
    16    20    23    1
    17    23    24    1
    18    23    25    1
    19    23    26    1
    20    20    21   ar
    21    21    22   ar
    22     5     6   ar
    23     6     7   ar
    24     7    10    1
    25    10    11    1
    26    11    12    1
    27    12    13    1
    28    13    14    1
    29    13    15    1
    30    15    16    1
    31     7     8   ar
    32     8     9   ar
    33     9     1   ar
    34     9     4   ar
    35    22    17   ar
    36    16    10    1
@<TRIPOS>MOLECULE
*****
 33 36 0 0 0
SMALL
GASTEIGER

@<TRIPOS>ATOM
      1 N           1.9690    1.1560   31.2401 N.ar    1  UNL1       -0.1943
      2 C           1.4473    2.1166   32.2672 C.ar    1  UNL1        0.1013
      3 C           2.3356    2.0336   33.4731 C.ar    1  UNL1        0.0236
      4 C           3.4063    1.0216   33.1912 C.ar    1  UNL1        0.0374
      5 C           4.5583    0.5239   34.0128 C.ar    1  UNL1        0.0058
      6 C           5.4838   -0.5161   33.4544 C.ar    1  UNL1        0.0344
      7 C           5.2573   -1.0584   32.0745 C.ar    1  UNL1        0.1334
      8 N           4.1052   -0.5608   31.2527 N.ar    1  UNL1       -0.2120
      9 C           3.1798    0.4793   31.8111 C.ar    1  UNL1        0.1648
     10 N           6.1828   -2.0985   31.5161 N.pl3   1  UNL1       -0.2903
     11 C           6.3143   -3.4287   32.1967 C.3     1  UNL1        0.1095
     12 C           7.2398   -4.4687   31.6384 C.3     1  UNL1        0.0939
     13 N           8.0338   -4.1786   30.3993 N.3     1  UNL1       -0.2686
     14 C           8.9593   -5.2186   29.8410 C.3     1  UNL1        0.0897
     15 C           7.9024   -2.8484   29.7186 C.3     1  UNL1        0.0939
     16 C           6.9769   -1.8084   30.2770 C.3     1  UNL1        0.1095
     17 C           4.7849    1.0663   35.3929 C.ar    1  UNL1        0.0002
     18 C           5.5889    2.3182   35.5841 C.ar    1  UNL1       -0.0001
     19 C           5.8154    2.8605   36.9641 C.ar    1  UNL1        0.0039
     20 C           5.2381    2.1511   38.1530 C.ar    1  UNL1        0.0714
     21 C           4.4341    0.8992   37.9617 C.ar    1  UNL1        0.0039
     22 C           4.2075    0.3568   36.5817 C.ar    1  UNL1       -0.0001
     23 C           5.4646    2.6934   39.5330 C.3     1  UNL1        0.4186
     24 F           5.6912    3.2357   40.9130 F       1  UNL1       -0.1659
     25 F           4.0409    3.1631   39.5821 F       1  UNL1       -0.1659
     26 F           6.8884    2.2237   39.4839 F       1  UNL1       -0.1659
     27 S           1.3829    0.9145   29.8806 S.O2    1  UNL1        0.0675
     28 O           1.3233   -0.5565   30.1676 O.2     1  UNL1       -0.1521
     29 O           1.4426    2.3856   29.5936 O.2     1  UNL1       -0.1521
     30 C           0.7968    0.6731   28.5211 C.3     1  UNL1        0.1751
     31 C          -1.6904    0.1277   29.0370 C.3     1  UNL1        0.0019
     32 C          -0.6635    0.9165   28.2799 C.3     1  UNL1        0.0258
     33 C          -1.0969    1.9487   27.2815 C.3     1  UNL1        0.0019
@<TRIPOS>BOND
     1    31    32    1
     2    32    33    1
     3    32    30    1
     4    30    27    1
     5    27    28    2
     6    27    29    2
     7    27     1    1
     8     1     2   ar
     9     2     3   ar
    10     3     4   ar
    11     4     5   ar
    12     5    17    1
    13    17    18   ar
    14    18    19   ar
    15    19    20   ar
    16    20    23    1
    17    23    24    1
    18    23    25    1
    19    23    26    1
    20    20    21   ar
    21    21    22   ar
    22     5     6   ar
    23     6     7   ar
    24     7    10    1
    25    10    11    1
    26    11    12    1
    27    12    13    1
    28    13    14    1
    29    13    15    1
    30    15    16    1
    31     7     8   ar
    32     8     9   ar
    33     9     1   ar
    34     9     4   ar
    35    22    17   ar
    36    16    10    1
@<TRIPOS>MOLECULE
*****
 33 36 0 0 0
SMALL
GASTEIGER

@<TRIPOS>ATOM
      1 N           7.9256   -4.6633   29.3998 N.ar    1  UNL1       -0.1943
      2 C           8.3529   -4.8368   30.8272 C.ar    1  UNL1        0.1013
      3 C           7.6188   -3.8257   31.6571 C.ar    1  UNL1        0.0236
      4 C           6.7377   -3.0273   30.7427 C.ar    1  UNL1        0.0374
      5 C           5.7873   -1.8957   31.0000 C.ar    1  UNL1        0.0058
      6 C           5.0264   -1.2819   29.8624 C.ar    1  UNL1        0.0344
      7 C           5.2160   -1.7995   28.4674 C.ar    1  UNL1        0.1334
      8 N           6.1665   -2.9311   28.2100 N.ar    1  UNL1       -0.2120
      9 C           6.9273   -3.5449   29.3476 C.ar    1  UNL1        0.1648
     10 N           4.4551   -1.1856   27.3297 N.pl3   1  UNL1       -0.2903
     11 C           4.6867   -1.6648   25.9274 C.3     1  UNL1        0.1095
     12 C           3.9259   -1.0509   24.7897 C.3     1  UNL1        0.0939
     13 N           2.9334    0.0422   25.0545 N.3     1  UNL1       -0.2686
     14 C           2.1726    0.6560   23.9168 C.3     1  UNL1        0.0897
     15 C           2.7017    0.5214   26.4569 C.3     1  UNL1        0.0939
     16 C           3.4626   -0.0925   27.5945 C.3     1  UNL1        0.1095
     17 C           5.5977   -1.3781   32.3951 C.ar    1  UNL1        0.0002
     18 C           4.4765   -1.9012   33.2433 C.ar    1  UNL1       -0.0001
     19 C           4.2869   -1.3836   34.6382 C.ar    1  UNL1        0.0039
     20 C           5.2184   -0.3428   35.1852 C.ar    1  UNL1        0.0714
     21 C           6.3395    0.1803   34.3370 C.ar    1  UNL1        0.0039
     22 C           6.5292   -0.3373   32.9419 C.ar    1  UNL1       -0.0001
     23 C           5.0288    0.1748   36.5801 C.3     1  UNL1        0.4186
     24 F           4.8391    0.6925   37.9751 F       1  UNL1       -0.1659
     25 F           6.2798   -0.5311   37.0121 F       1  UNL1       -0.1659
     26 F           3.7777    0.8808   36.1481 F       1  UNL1       -0.1659
     27 S           8.4112   -5.4670   28.2301 S.O2    1  UNL1        0.0675
     28 O           9.3437   -4.3544   27.8528 O.2     1  UNL1       -0.1521
     29 O           7.4787   -6.5797   28.6075 O.2     1  UNL1       -0.1521
     30 C           8.8968   -6.2707   27.0604 C.3     1  UNL1        0.1751
     31 C           7.1939   -5.2390   25.3915 C.3     1  UNL1        0.0019
     32 C           8.0485   -6.3913   25.8293 C.3     1  UNL1        0.0258
     33 C           8.0547   -7.6644   25.0359 C.3     1  UNL1        0.0019
@<TRIPOS>BOND
     1    31    32    1
     2    32    33    1
     3    32    30    1
     4    30    27    1
     5    27    28    2
     6    27    29    2
     7    27     1    1
     8     1     2   ar
     9     2     3   ar
    10     3     4   ar
    11     4     5   ar
    12     5    17    1
    13    17    18   ar
    14    18    19   ar
    15    19    20   ar
    16    20    23    1
    17    23    24    1
    18    23    25    1
    19    23    26    1
    20    20    21   ar
    21    21    22   ar
    22     5     6   ar
    23     6     7   ar
    24     7    10    1
    25    10    11    1
    26    11    12    1
    27    12    13    1
    28    13    14    1
    29    13    15    1
    30    15    16    1
    31     7     8   ar
    32     8     9   ar
    33     9     1   ar
    34     9     4   ar
    35    22    17   ar
    36    16    10    1
@<TRIPOS>MOLECULE
*****
 33 36 0 0 0
SMALL
GASTEIGER

@<TRIPOS>ATOM
      1 N          -0.4529    3.0092   22.2830 N.ar    1  UNL1       -0.1943
      2 C           0.8172    2.4919   22.8908 C.ar    1  UNL1        0.1013
      3 C           0.6290    2.4328   24.3778 C.ar    1  UNL1        0.0236
      4 C          -0.7573    2.9135   24.6891 C.ar    1  UNL1        0.0374
      5 C          -1.4973    3.0730   25.9841 C.ar    1  UNL1        0.0058
      6 C          -2.9059    3.5886   25.9844 C.ar    1  UNL1        0.0344
      7 C          -3.5745    3.9447   24.6899 C.ar    1  UNL1        0.1334
      8 N          -2.8346    3.7853   23.3948 N.ar    1  UNL1       -0.2120
      9 C          -1.4260    3.2697   23.3944 C.ar    1  UNL1        0.1648
     10 N          -4.9832    4.4604   24.6903 N.pl3   1  UNL1       -0.2903
     11 C          -5.9175    4.0907   23.5766 C.3     1  UNL1        0.1095
     12 C          -7.3260    4.6063   23.5770 C.3     1  UNL1        0.0939
     13 N          -7.8003    5.4916   24.6911 N.3     1  UNL1       -0.2686
     14 C          -9.2089    6.0071   24.6914 C.3     1  UNL1        0.0897
     15 C          -6.8660    5.8613   25.8048 C.3     1  UNL1        0.0939
     16 C          -5.4575    5.3457   25.8044 C.3     1  UNL1        0.1095
     17 C          -0.8286    2.7168   27.2787 C.ar    1  UNL1        0.0002
     18 C          -0.9908    1.3404   27.8528 C.ar    1  UNL1       -0.0001
     19 C          -0.3222    0.9842   29.1473 C.ar    1  UNL1        0.0039
     20 C           0.5086    2.0043   29.8680 C.ar    1  UNL1        0.0714
     21 C           0.6707    3.3806   29.2939 C.ar    1  UNL1        0.0039
     22 C           0.0021    3.7369   27.9993 C.ar    1  UNL1       -0.0001
     23 C           1.1772    1.6481   31.1625 C.3     1  UNL1        0.4186
     24 F           1.8458    1.2919   32.4572 F       1  UNL1       -0.1659
     25 F           0.5848    2.8678   31.8041 F       1  UNL1       -0.1659
     26 F           1.7696    0.4285   30.5211 F       1  UNL1       -0.1659
     27 S          -0.7055    3.2275   20.8207 S.O2    1  UNL1        0.0675
     28 O          -0.8850    1.7504   20.6312 O.2     1  UNL1       -0.1521
     29 O          -0.5260    4.7046   21.0102 O.2     1  UNL1       -0.1521
     30 C          -0.9581    3.4458   19.3583 C.3     1  UNL1        0.1751
     31 C          -2.2450    5.0360   17.7568 C.3     1  UNL1        0.0019
     32 C          -2.2442    4.0701   18.9044 C.3     1  UNL1        0.0258
     33 C          -3.5296    3.7286   19.5981 C.3     1  UNL1        0.0019
@<TRIPOS>BOND
     1    31    32    1
     2    32    33    1
     3    32    30    1
     4    30    27    1
     5    27    28    2
     6    27    29    2
     7    27     1    1
     8     1     2   ar
     9     2     3   ar
    10     3     4   ar
    11     4     5   ar
    12     5    17    1
    13    17    18   ar
    14    18    19   ar
    15    19    20   ar
    16    20    23    1
    17    23    24    1
    18    23    25    1
    19    23    26    1
    20    20    21   ar
    21    21    22   ar
    22     5     6   ar
    23     6     7   ar
    24     7    10    1
    25    10    11    1
    26    11    12    1
    27    12    13    1
    28    13    14    1
    29    13    15    1
    30    15    16    1
    31     7     8   ar
    32     8     9   ar
    33     9     1   ar
    34     9     4   ar
    35    22    17   ar
    36    16    10    1
@<TRIPOS>MOLECULE
*****
 33 36 0 0 0
SMALL
GASTEIGER

@<TRIPOS>ATOM
      1 N           1.2525    1.1855   26.2367 N.ar    1  UNL1       -0.1943
      2 C           0.5950    1.6771   24.9813 C.ar    1  UNL1        0.1013
      3 C           1.3257    1.0850   23.8128 C.ar    1  UNL1        0.0236
      4 C           2.4349    0.2274   24.3459 C.ar    1  UNL1        0.0374
      5 C           3.4802   -0.6021   23.6609 C.ar    1  UNL1        0.0058
      6 C           4.4803   -1.3694   24.4739 C.ar    1  UNL1        0.0344
      7 C           4.4351   -1.3073   25.9719 C.ar    1  UNL1        0.1334
      8 N           3.3897   -0.4778   26.6570 N.ar    1  UNL1       -0.2120
      9 C           2.3896    0.2895   25.8440 C.ar    1  UNL1        0.1648
     10 N           5.4352   -2.0747   26.7849 N.pl3   1  UNL1       -0.2903
     11 C           6.4158   -2.9834   26.1047 C.3     1  UNL1        0.1095
     12 C           7.4159   -3.7508   26.9178 C.3     1  UNL1        0.0939
     13 N           7.4354   -3.6093   28.4110 N.3     1  UNL1       -0.2686
     14 C           8.4355   -4.3767   29.2239 C.3     1  UNL1        0.0897
     15 C           6.4549   -2.7006   29.0911 C.3     1  UNL1        0.0939
     16 C           5.4548   -1.9332   28.2781 C.3     1  UNL1        0.1095
     17 C           3.5254   -0.6643   22.1629 C.ar    1  UNL1        0.0002
     18 C           3.1969   -1.9454   21.4551 C.ar    1  UNL1       -0.0001
     19 C           3.2421   -2.0076   19.9572 C.ar    1  UNL1        0.0039
     20 C           3.6158   -0.7887   19.1668 C.ar    1  UNL1        0.0714
     21 C           3.9443    0.4924   19.8745 C.ar    1  UNL1        0.0039
     22 C           3.8991    0.5546   21.3726 C.ar    1  UNL1       -0.0001
     23 C           3.6610   -0.8509   17.6689 C.3     1  UNL1        0.4186
     24 F           3.7062   -0.9131   16.1708 F       1  UNL1       -0.1659
     25 F           2.8567    0.4130   17.5921 F       1  UNL1       -0.1659
     26 F           4.4653   -2.1147   17.7455 F       1  UNL1       -0.1659
     27 S           0.8446    1.5295   27.6386 S.O2    1  UNL1        0.0675
     28 O          -0.3144    0.5831   27.5335 O.2     1  UNL1       -0.1521
     29 O           2.0037    2.4759   27.7436 O.2     1  UNL1       -0.1521
     30 C           0.4367    1.8735   29.0404 C.3     1  UNL1        0.1751
     31 C           1.2417    2.0862   31.5015 C.3     1  UNL1        0.0019
     32 C           1.2191    1.3368   30.2023 C.3     1  UNL1        0.0258
     33 C           1.9789    0.0507   30.0649 C.3     1  UNL1        0.0019
@<TRIPOS>BOND
     1    31    32    1
     2    32    33    1
     3    32    30    1
     4    30    27    1
     5    27    28    2
     6    27    29    2
     7    27     1    1
     8     1     2   ar
     9     2     3   ar
    10     3     4   ar
    11     4     5   ar
    12     5    17    1
    13    17    18   ar
    14    18    19   ar
    15    19    20   ar
    16    20    23    1
    17    23    24    1
    18    23    25    1
    19    23    26    1
    20    20    21   ar
    21    21    22   ar
    22     5     6   ar
    23     6     7   ar
    24     7    10    1
    25    10    11    1
    26    11    12    1
    27    12    13    1
    28    13    14    1
    29    13    15    1
    30    15    16    1
    31     7     8   ar
    32     8     9   ar
    33     9     1   ar
    34     9     4   ar
    35    22    17   ar
    36    16    10    1
@<TRIPOS>MOLECULE
*****
 33 36 0 0 0
SMALL
GASTEIGER

@<TRIPOS>ATOM
      1 N          -1.1969    2.9781   21.1302 N.ar    1  UNL1       -0.1943
      2 C          -0.7734    2.7284   19.7131 C.ar    1  UNL1        0.1013
      3 C           0.4528    1.8649   19.7411 C.ar    1  UNL1        0.0236
      4 C           0.7872    1.5810   21.1755 C.ar    1  UNL1        0.0374
      5 C           1.8883    0.7849   21.8108 C.ar    1  UNL1        0.0058
      6 C           1.9699    0.6768   23.3047 C.ar    1  UNL1        0.0344
      7 C           0.9503    1.3647   24.1632 C.ar    1  UNL1        0.1334
      8 N          -0.1509    2.1609   23.5279 N.ar    1  UNL1       -0.2120
      9 C          -0.2324    2.2690   22.0340 C.ar    1  UNL1        0.1648
     10 N           1.0319    1.2566   25.6572 N.pl3   1  UNL1       -0.2903
     11 C           2.3583    1.0357   26.3218 C.3     1  UNL1        0.1095
     12 C           2.4398    0.9276   27.8157 C.3     1  UNL1        0.0939
     13 N           1.1949    1.0403   28.6449 N.3     1  UNL1       -0.2686
     14 C           1.2765    0.9322   30.1387 C.3     1  UNL1        0.0897
     15 C          -0.1315    1.2612   27.9802 C.3     1  UNL1        0.0939
     16 C          -0.2130    1.3693   26.4863 C.3     1  UNL1        0.1095
     17 C           2.9080    0.0969   20.9523 C.ar    1  UNL1        0.0002
     18 C           4.2576    0.7185   20.7467 C.ar    1  UNL1       -0.0001
     19 C           5.2772    0.0306   19.8883 C.ar    1  UNL1        0.0039
     20 C           4.9473   -1.2790   19.2353 C.ar    1  UNL1        0.0714
     21 C           3.5977   -1.9005   19.4409 C.ar    1  UNL1        0.0039
     22 C           2.5780   -1.2126   20.2994 C.ar    1  UNL1       -0.0001
     23 C           5.9669   -1.9669   18.3768 C.3     1  UNL1        0.4186
     24 F           6.9865   -2.6549   17.5183 F       1  UNL1       -0.1659
     25 F           6.8781   -0.7830   18.5103 F       1  UNL1       -0.1659
     26 F           5.0556   -3.1510   18.2433 F       1  UNL1       -0.1659
     27 S          -2.3776    3.7938   21.5669 S.O2    1  UNL1        0.0675
     28 O          -3.3027    2.7611   20.9944 O.2     1  UNL1       -0.1521
     29 O          -1.4525    4.8265   22.1394 O.2     1  UNL1       -0.1521
     30 C          -3.5584    4.6094   22.0035 C.3     1  UNL1        0.1751
     31 C          -5.9704    4.0818   22.8121 C.3     1  UNL1        0.0019
     32 C          -4.4898    4.0787   23.0526 C.3     1  UNL1        0.0258
     33 C          -3.9407    3.5449   24.3425 C.3     1  UNL1        0.0019
@<TRIPOS>BOND
     1    31    32    1
     2    32    33    1
     3    32    30    1
     4    30    27    1
     5    27    28    2
     6    27    29    2
     7    27     1    1
     8     1     2   ar
     9     2     3   ar
    10     3     4   ar
    11     4     5   ar
    12     5    17    1
    13    17    18   ar
    14    18    19   ar
    15    19    20   ar
    16    20    23    1
    17    23    24    1
    18    23    25    1
    19    23    26    1
    20    20    21   ar
    21    21    22   ar
    22     5     6   ar
    23     6     7   ar
    24     7    10    1
    25    10    11    1
    26    11    12    1
    27    12    13    1
    28    13    14    1
    29    13    15    1
    30    15    16    1
    31     7     8   ar
    32     8     9   ar
    33     9     1   ar
    34     9     4   ar
    35    22    17   ar
    36    16    10    1
