@<TRIPOS>MOLECULE
*****
 35 38 0 0 0
SMALL
GASTEIGER

@<TRIPOS>ATOM
      1 O           3.7202    2.2988   28.6709 O.2     1  UNL1       -0.2748
      2 C           3.0996    0.9668   28.3701 C.2     1  UNL1        0.2257
      3 N           2.4152    0.1952   29.4592 N.am    1  UNL1       -0.2839
      4 H           2.0079   -0.6791   29.2617 H       1  UNL1        0.1549
      5 C           2.3514    0.7556   30.8491 C.ar    1  UNL1        0.0517
      6 C           1.3297    1.7993   31.1908 C.ar    1  UNL1        0.0179
      7 C           1.2659    2.3596   32.5807 C.ar    1  UNL1        0.0395
      8 C           2.2239    1.8763   33.6289 C.ar    1  UNL1        0.1525
      9 C           3.2455    0.8326   33.2872 C.ar    1  UNL1        0.0861
     10 C           3.3093    0.2722   31.8973 C.ar    1  UNL1        0.0324
     11 N           4.2035    0.3492   34.3355 N.am    1  UNL1       -0.2786
     12 C           4.1397    0.9096   35.7254 C.2     1  UNL1        0.2665
     13 O           5.0976    0.4263   36.7736 O.2     1  UNL1       -0.2709
     14 C           3.1180    1.9534   36.0671 C.3     1  UNL1        0.2438
     15 O           2.1600    2.4367   35.0189 O.3     1  UNL1       -0.4686
     16 H           4.8740   -0.3358   34.1112 H       1  UNL1        0.1551
     17 C           3.0542    2.5137   37.4570 C.3     1  UNL1        0.0849
     18 C           2.4406    1.7076   38.5633 C.3     1  UNL1        0.1414
     19 O           3.2444    0.6444   39.2513 O.3     1  UNL1       -0.3819
     20 H           3.4439   -0.0674   38.6233 H       1  UNL1        0.2104
     21 C           3.1634    0.4064   26.9801 C.3     1  UNL1        0.0802
     22 C           2.3670    1.0405   25.8785 C.3     1  UNL1        0.0305
     23 C           2.4308    0.4801   24.4886 C.3     1  UNL1        0.0913
     24 N           3.2911   -0.7145   24.2003 N.pl3   1  UNL1       -0.3074
     25 C           4.0875   -1.3486   25.3020 C.3     1  UNL1        0.0913
     26 C           4.0236   -0.7882   26.6918 C.3     1  UNL1        0.0305
     27 C           3.3549   -1.2749   22.8104 C.ar    1  UNL1        0.0525
     28 C           2.5319   -0.6622   21.7162 C.ar    1  UNL1        0.0466
     29 C           2.5958   -1.2226   20.3263 C.ar    1  UNL1        0.1709
     30 F           1.7728   -0.6099   19.2320 F       1  UNL1       -0.2017
     31 C           3.4825   -2.3957   20.0306 C.ar    1  UNL1        0.1947
     32 F           3.5463   -2.9561   18.6406 F       1  UNL1       -0.1994
     33 C           4.3055   -3.0084   21.1248 C.ar    1  UNL1        0.1709
     34 F           5.1922   -4.1816   20.8291 F       1  UNL1       -0.2017
     35 C           4.2416   -2.4480   22.5147 C.ar    1  UNL1        0.0466
@<TRIPOS>BOND
     1     1     2    2
     2     2     3   am
     3     3     5    1
     4     5     6   ar
     5     6     7   ar
     6     7     8   ar
     7     8     9   ar
     8     9    10   ar
     9     9    11    1
    10    11    12   am
    11    12    13    2
    12    12    14    1
    13    14    17    1
    14    17    18    1
    15    18    19    1
    16    14    15    1
    17     2    21    1
    18    21    22    1
    19    22    23    1
    20    23    24    1
    21    24    27    1
    22    27    28   ar
    23    28    29   ar
    24    29    30    1
    25    29    31   ar
    26    31    32    1
    27    31    33   ar
    28    33    34    1
    29    33    35   ar
    30    24    25    1
    31    25    26    1
    32    10     5   ar
    33    26    21    1
    34    15     8    1
    35    35    27   ar
    36     3     4    1
    37    11    16    1
    38    19    20    1
@<TRIPOS>MOLECULE
*****
 35 38 0 0 0
SMALL
GASTEIGER

@<TRIPOS>ATOM
      1 O          -1.8072    4.7701   20.7827 O.2     1  UNL1       -0.2748
      2 C          -1.9406    3.2876   20.5974 C.2     1  UNL1        0.2257
      3 N          -3.2653    2.6201   20.8200 N.am    1  UNL1       -0.2839
      4 H          -3.3528    1.6471   20.6983 H       1  UNL1        0.1549
      5 C          -4.4568    3.4352   21.2278 C.ar    1  UNL1        0.0517
      6 C          -5.4342    3.9051   20.1916 C.ar    1  UNL1        0.0179
      7 C          -6.6256    4.7201   20.5994 C.ar    1  UNL1        0.0395
      8 C          -6.8395    5.0652   22.0435 C.ar    1  UNL1        0.1525
      9 C          -5.8620    4.5952   23.0796 C.ar    1  UNL1        0.0861
     10 C          -4.6707    3.7802   22.6718 C.ar    1  UNL1        0.0324
     11 N          -6.0760    4.9402   24.5237 N.am    1  UNL1       -0.2786
     12 C          -7.2673    5.7553   24.9315 C.2     1  UNL1        0.2665
     13 O          -7.4813    6.1003   26.3755 O.2     1  UNL1       -0.2709
     14 C          -8.2448    6.2253   23.8953 C.3     1  UNL1        0.2438
     15 O          -8.0309    5.8802   22.4513 O.3     1  UNL1       -0.4686
     16 H          -5.4344    4.6318   25.2037 H       1  UNL1        0.1551
     17 C          -9.4362    7.0403   24.3031 C.3     1  UNL1        0.0849
     18 C         -10.7490    6.3666   24.5732 C.3     1  UNL1        0.1414
     19 O         -10.7820    5.0456   25.2831 O.3     1  UNL1       -0.3819
     20 H         -10.3638    4.3694   24.7274 H       1  UNL1        0.2104
     21 C          -0.7492    2.4725   20.1896 C.3     1  UNL1        0.0802
     22 C          -0.1346    1.5060   21.1581 C.3     1  UNL1        0.0305
     23 C           1.0567    0.6910   20.7503 C.3     1  UNL1        0.0913
     24 N           1.6336    0.8426   19.3739 N.pl3   1  UNL1       -0.3074
     25 C           1.0190    1.8091   18.4055 C.3     1  UNL1        0.0913
     26 C          -0.1723    2.6241   18.8133 C.3     1  UNL1        0.0305
     27 C           2.8250    0.0275   18.9661 C.ar    1  UNL1        0.0525
     28 C           3.7775    0.5556   17.9348 C.ar    1  UNL1        0.0466
     29 C           4.9689   -0.2594   17.5270 C.ar    1  UNL1        0.1709
     30 F           5.9215    0.2687   16.4956 F       1  UNL1       -0.2017
     31 C           5.2077   -1.6026   18.1506 C.ar    1  UNL1        0.1947
     32 F           6.3992   -2.4176   17.7428 F       1  UNL1       -0.1994
     33 C           4.2552   -2.1307   19.1819 C.ar    1  UNL1        0.1709
     34 F           4.4940   -3.4739   19.8055 F       1  UNL1       -0.2017
     35 C           3.0638   -1.3157   19.5897 C.ar    1  UNL1        0.0466
@<TRIPOS>BOND
     1     1     2    2
     2     2     3   am
     3     3     5    1
     4     5     6   ar
     5     6     7   ar
     6     7     8   ar
     7     8     9   ar
     8     9    10   ar
     9     9    11    1
    10    11    12   am
    11    12    13    2
    12    12    14    1
    13    14    17    1
    14    17    18    1
    15    18    19    1
    16    14    15    1
    17     2    21    1
    18    21    22    1
    19    22    23    1
    20    23    24    1
    21    24    27    1
    22    27    28   ar
    23    28    29   ar
    24    29    30    1
    25    29    31   ar
    26    31    32    1
    27    31    33   ar
    28    33    34    1
    29    33    35   ar
    30    24    25    1
    31    25    26    1
    32    10     5   ar
    33    26    21    1
    34    15     8    1
    35    35    27   ar
    36     3     4    1
    37    11    16    1
    38    19    20    1
@<TRIPOS>MOLECULE
*****
 35 38 0 0 0
SMALL
GASTEIGER

@<TRIPOS>ATOM
      1 O          -0.2764    0.9824   25.6268 O.2     1  UNL1       -0.2748
      2 C          -0.4340    1.8063   26.8703 C.2     1  UNL1        0.2257
      3 N          -1.3900    2.9620   26.8881 N.am    1  UNL1       -0.2839
      4 H          -1.4935    3.5028   27.7043 H       1  UNL1        0.1549
      5 C          -2.1885    3.2939   25.6623 C.ar    1  UNL1        0.0517
      6 C          -1.4950    3.4973   24.3479 C.ar    1  UNL1        0.0179
      7 C          -2.2934    3.8291   23.1222 C.ar    1  UNL1        0.0395
      8 C          -3.7853    3.9575   23.2109 C.ar    1  UNL1        0.1525
      9 C          -4.4787    3.7541   24.5253 C.ar    1  UNL1        0.0861
     10 C          -3.6803    3.4223   25.7510 C.ar    1  UNL1        0.0324
     11 N          -5.9706    3.8826   24.6141 N.am    1  UNL1       -0.2786
     12 C          -6.7690    4.2144   23.3884 C.2     1  UNL1        0.2665
     13 O          -8.2609    4.3428   23.4771 O.2     1  UNL1       -0.2709
     14 C          -6.0756    4.4178   22.0739 C.3     1  UNL1        0.2438
     15 O          -4.5837    4.2894   21.9851 O.3     1  UNL1       -0.4686
     16 H          -6.4257    3.7491   25.4768 H       1  UNL1        0.1551
     17 C          -6.8740    4.7497   20.8482 C.3     1  UNL1        0.0849
     18 C          -6.5783    4.0579   19.5504 C.3     1  UNL1        0.1414
     19 O          -5.5464    2.9705   19.4982 O.3     1  UNL1       -0.3819
     20 H          -4.6716    3.3457   19.6852 H       1  UNL1        0.2104
     21 C           0.3644    1.4745   28.0961 C.3     1  UNL1        0.0802
     22 C           0.5872    2.5172   29.1511 C.3     1  UNL1        0.0305
     23 C           1.3855    2.1853   30.3768 C.3     1  UNL1        0.0913
     24 N           1.9611    0.8107   30.5475 N.pl3   1  UNL1       -0.3074
     25 C           1.7384   -0.2320   29.4926 C.3     1  UNL1        0.0913
     26 C           0.9400    0.0998   28.2668 C.3     1  UNL1        0.0305
     27 C           2.7596    0.4788   31.7733 C.ar    1  UNL1        0.0525
     28 C           2.8183    1.4493   32.9156 C.ar    1  UNL1        0.0466
     29 C           3.6167    1.1174   34.1413 C.ar    1  UNL1        0.1709
     30 F           3.6755    2.0878   35.2836 F       1  UNL1       -0.2017
     31 C           4.3563   -0.1849   34.2247 C.ar    1  UNL1        0.1947
     32 F           5.1547   -0.5168   35.4505 F       1  UNL1       -0.1994
     33 C           4.2976   -1.1553   33.0825 C.ar    1  UNL1        0.1709
     34 F           5.0372   -2.4577   33.1659 F       1  UNL1       -0.2017
     35 C           3.4992   -0.8235   31.8568 C.ar    1  UNL1        0.0466
@<TRIPOS>BOND
     1     1     2    2
     2     2     3   am
     3     3     5    1
     4     5     6   ar
     5     6     7   ar
     6     7     8   ar
     7     8     9   ar
     8     9    10   ar
     9     9    11    1
    10    11    12   am
    11    12    13    2
    12    12    14    1
    13    14    17    1
    14    17    18    1
    15    18    19    1
    16    14    15    1
    17     2    21    1
    18    21    22    1
    19    22    23    1
    20    23    24    1
    21    24    27    1
    22    27    28   ar
    23    28    29   ar
    24    29    30    1
    25    29    31   ar
    26    31    32    1
    27    31    33   ar
    28    33    34    1
    29    33    35   ar
    30    24    25    1
    31    25    26    1
    32    10     5   ar
    33    26    21    1
    34    15     8    1
    35    35    27   ar
    36     3     4    1
    37    11    16    1
    38    19    20    1
@<TRIPOS>MOLECULE
*****
 35 38 0 0 0
SMALL
GASTEIGER

@<TRIPOS>ATOM
      1 O          -0.4587    1.3387   25.4647 O.2     1  UNL1       -0.2748
      2 C          -0.5757    2.0878   26.7590 C.2     1  UNL1        0.2257
      3 N          -1.5084    3.2576   26.8668 N.am    1  UNL1       -0.2839
      4 H          -1.5852    3.7492   27.7163 H       1  UNL1        0.1549
      5 C          -2.3242    3.6783   25.6804 C.ar    1  UNL1        0.0517
      6 C          -1.6434    4.1867   24.4443 C.ar    1  UNL1        0.0179
      7 C          -2.4592    4.6073   23.2580 C.ar    1  UNL1        0.0395
      8 C          -3.9558    4.5197   23.3077 C.ar    1  UNL1        0.1525
      9 C          -4.6366    4.0113   24.5438 C.ar    1  UNL1        0.0861
     10 C          -3.8208    3.5906   25.7302 C.ar    1  UNL1        0.0324
     11 N          -6.1332    3.9236   24.5936 N.am    1  UNL1       -0.2786
     12 C          -6.9490    4.3443   23.4072 C.2     1  UNL1        0.2665
     13 O          -8.4456    4.2566   23.4570 O.2     1  UNL1       -0.2709
     14 C          -6.2682    4.8527   22.1710 C.3     1  UNL1        0.2438
     15 O          -4.7716    4.9404   22.1213 O.3     1  UNL1       -0.4686
     16 H          -6.5800    3.5899   25.4049 H       1  UNL1        0.1551
     17 C          -7.0840    5.2734   20.9847 C.3     1  UNL1        0.0849
     18 C          -6.8507    4.6324   19.6487 C.3     1  UNL1        0.1414
     19 O          -8.0048    4.3886   18.7221 O.3     1  UNL1       -0.3819
     20 H          -8.6019    3.7327   19.1148 H       1  UNL1        0.2104
     21 C           0.2401    1.6671   27.9454 C.3     1  UNL1        0.0802
     22 C           0.5416    0.2152   28.1715 C.3     1  UNL1        0.0305
     23 C           1.3574   -0.2054   29.3579 C.3     1  UNL1        0.0913
     24 N           1.8716    0.8258   30.3182 N.pl3   1  UNL1       -0.3074
     25 C           1.5701    2.2776   30.0921 C.3     1  UNL1        0.0913
     26 C           0.7544    2.6983   28.9057 C.3     1  UNL1        0.0305
     27 C           2.6874    0.4051   31.5046 C.ar    1  UNL1        0.0525
     28 C           3.3940   -0.9181   31.4978 C.ar    1  UNL1        0.0466
     29 C           4.2097   -1.3387   32.6842 C.ar    1  UNL1        0.1709
     30 F           4.9163   -2.6619   32.6775 F       1  UNL1       -0.2017
     31 C           4.3189   -0.4363   33.8774 C.ar    1  UNL1        0.1947
     32 F           5.1347   -0.8570   35.0638 F       1  UNL1       -0.1994
     33 C           3.6123    0.8869   33.8842 C.ar    1  UNL1        0.1709
     34 F           3.7215    1.7893   35.0773 F       1  UNL1       -0.2017
     35 C           2.7966    1.3075   32.6978 C.ar    1  UNL1        0.0466
@<TRIPOS>BOND
     1     1     2    2
     2     2     3   am
     3     3     5    1
     4     5     6   ar
     5     6     7   ar
     6     7     8   ar
     7     8     9   ar
     8     9    10   ar
     9     9    11    1
    10    11    12   am
    11    12    13    2
    12    12    14    1
    13    14    17    1
    14    17    18    1
    15    18    19    1
    16    14    15    1
    17     2    21    1
    18    21    22    1
    19    22    23    1
    20    23    24    1
    21    24    27    1
    22    27    28   ar
    23    28    29   ar
    24    29    30    1
    25    29    31   ar
    26    31    32    1
    27    31    33   ar
    28    33    34    1
    29    33    35   ar
    30    24    25    1
    31    25    26    1
    32    10     5   ar
    33    26    21    1
    34    15     8    1
    35    35    27   ar
    36     3     4    1
    37    11    16    1
    38    19    20    1
@<TRIPOS>MOLECULE
*****
 35 38 0 0 0
SMALL
GASTEIGER

@<TRIPOS>ATOM
      1 O           1.2271    3.7639   28.0762 O.2     1  UNL1       -0.2748
      2 C           0.1114    2.7798   27.8846 C.2     1  UNL1        0.2257
      3 N          -0.0001    1.5872   28.7875 N.am    1  UNL1       -0.2839
      4 H          -0.7324    0.9413   28.6618 H       1  UNL1        0.1549
      5 C           1.0041    1.3787   29.8821 C.ar    1  UNL1        0.0517
      6 C           2.2500    0.5869   29.6161 C.ar    1  UNL1        0.0179
      7 C           3.2542    0.3785   30.7107 C.ar    1  UNL1        0.0395
      8 C           3.0125    0.9618   32.0713 C.ar    1  UNL1        0.1525
      9 C           1.7666    1.7536   32.3374 C.ar    1  UNL1        0.0861
     10 C           0.7624    1.9620   31.2428 C.ar    1  UNL1        0.0324
     11 N           1.5249    2.3369   33.6980 N.am    1  UNL1       -0.2786
     12 C           2.5290    2.1284   34.7926 C.2     1  UNL1        0.2665
     13 O           2.2873    2.7117   36.1532 O.2     1  UNL1       -0.2709
     14 C           3.7750    1.3366   34.5265 C.3     1  UNL1        0.2438
     15 O           4.0167    0.7533   33.1659 O.3     1  UNL1       -0.4686
     16 H           0.7072    2.8566   33.8726 H       1  UNL1        0.1551
     17 C           4.7792    1.1281   35.6211 C.3     1  UNL1        0.0849
     18 C           4.5281    0.0990   36.6832 C.3     1  UNL1        0.1414
     19 O           3.5296    0.3702   37.7692 O.3     1  UNL1       -0.3819
     20 H           3.8448    1.1015   38.3230 H       1  UNL1        0.2104
     21 C          -0.8928    2.9883   26.7900 C.3     1  UNL1        0.0802
     22 C          -2.2801    3.4512   27.1231 C.3     1  UNL1        0.0305
     23 C          -3.2843    3.6597   26.0286 C.3     1  UNL1        0.0913
     24 N          -2.9011    3.4053   24.6008 N.pl3   1  UNL1       -0.3074
     25 C          -1.5138    2.9423   24.2677 C.3     1  UNL1        0.0913
     26 C          -0.5097    2.7338   25.3622 C.3     1  UNL1        0.0305
     27 C          -3.9054    3.6138   23.5062 C.ar    1  UNL1        0.0525
     28 C          -5.3556    3.7957   23.8435 C.ar    1  UNL1        0.0466
     29 C          -6.3597    4.0042   22.7490 C.ar    1  UNL1        0.1709
     30 F          -7.8100    4.1861   23.0862 F       1  UNL1       -0.2017
     31 C          -5.9137    4.0308   21.3170 C.ar    1  UNL1        0.1947
     32 F          -6.9179    4.2393   20.2224 F       1  UNL1       -0.1994
     33 C          -4.4635    3.8489   20.9797 C.ar    1  UNL1        0.1709
     34 F          -4.0175    3.8755   19.5478 F       1  UNL1       -0.2017
     35 C          -3.4593    3.6404   22.0743 C.ar    1  UNL1        0.0466
@<TRIPOS>BOND
     1     1     2    2
     2     2     3   am
     3     3     5    1
     4     5     6   ar
     5     6     7   ar
     6     7     8   ar
     7     8     9   ar
     8     9    10   ar
     9     9    11    1
    10    11    12   am
    11    12    13    2
    12    12    14    1
    13    14    17    1
    14    17    18    1
    15    18    19    1
    16    14    15    1
    17     2    21    1
    18    21    22    1
    19    22    23    1
    20    23    24    1
    21    24    27    1
    22    27    28   ar
    23    28    29   ar
    24    29    30    1
    25    29    31   ar
    26    31    32    1
    27    31    33   ar
    28    33    34    1
    29    33    35   ar
    30    24    25    1
    31    25    26    1
    32    10     5   ar
    33    26    21    1
    34    15     8    1
    35    35    27   ar
    36     3     4    1
    37    11    16    1
    38    19    20    1
@<TRIPOS>MOLECULE
*****
 35 38 0 0 0
SMALL
GASTEIGER

@<TRIPOS>ATOM
      1 O           0.4361    3.8038   27.1647 O.2     1  UNL1       -0.2748
      2 C          -0.7272    2.8878   26.9241 C.2     1  UNL1        0.2257
      3 N          -0.8568    1.6175   27.7111 N.am    1  UNL1       -0.2839
      4 H          -1.6203    1.0163   27.5531 H       1  UNL1        0.1549
      5 C           0.1768    1.2631   28.7388 C.ar    1  UNL1        0.0517
      6 C           1.2452    0.2618   28.4137 C.ar    1  UNL1        0.0179
      7 C           2.2787   -0.0926   29.4414 C.ar    1  UNL1        0.0395
      8 C           2.2438    0.5544   30.7943 C.ar    1  UNL1        0.1525
      9 C           1.1754    1.5558   31.1194 C.ar    1  UNL1        0.0861
     10 C           0.1419    1.9101   30.0917 C.ar    1  UNL1        0.0324
     11 N           1.1405    2.2028   32.4722 N.am    1  UNL1       -0.2786
     12 C           2.1740    1.8485   33.4999 C.2     1  UNL1        0.2665
     13 O           2.1391    2.4955   34.8528 O.2     1  UNL1       -0.2709
     14 C           3.2425    0.8470   33.1748 C.3     1  UNL1        0.2438
     15 O           3.2774    0.2000   31.8220 O.3     1  UNL1       -0.4686
     16 H           0.4392    2.8600   32.6856 H       1  UNL1        0.1551
     17 C           4.2760    0.4927   34.2026 C.3     1  UNL1        0.0849
     18 C           4.4532   -0.9352   34.6267 C.3     1  UNL1        0.1414
     19 O           3.8910   -2.0427   33.7857 O.3     1  UNL1       -0.3819
     20 H           2.9223   -1.9914   33.7891 H       1  UNL1        0.2104
     21 C          -1.7607    3.2422   25.8963 C.3     1  UNL1        0.0802
     22 C          -3.1592    3.5765   26.3234 C.3     1  UNL1        0.0305
     23 C          -4.1927    3.9309   25.2957 C.3     1  UNL1        0.0913
     24 N          -3.8277    3.9510   23.8409 N.pl3   1  UNL1       -0.3074
     25 C          -2.4292    3.6167   23.4138 C.3     1  UNL1        0.0913
     26 C          -1.3957    3.2623   24.4416 C.3     1  UNL1        0.0305
     27 C          -4.8613    4.3054   22.8132 C.ar    1  UNL1        0.0525
     28 C          -4.8583    3.6198   21.4790 C.ar    1  UNL1        0.0466
     29 C          -5.8919    3.9742   20.4514 C.ar    1  UNL1        0.1709
     30 F          -5.8889    3.2886   19.1172 F       1  UNL1       -0.2017
     31 C          -6.9284    5.0142   20.7578 C.ar    1  UNL1        0.1947
     32 F          -7.9620    5.3686   19.7301 F       1  UNL1       -0.1994
     33 C          -6.9314    5.6998   22.0920 C.ar    1  UNL1        0.1709
     34 F          -7.9680    6.7398   22.3984 F       1  UNL1       -0.2017
     35 C          -5.8979    5.3454   23.1196 C.ar    1  UNL1        0.0466
@<TRIPOS>BOND
     1     1     2    2
     2     2     3   am
     3     3     5    1
     4     5     6   ar
     5     6     7   ar
     6     7     8   ar
     7     8     9   ar
     8     9    10   ar
     9     9    11    1
    10    11    12   am
    11    12    13    2
    12    12    14    1
    13    14    17    1
    14    17    18    1
    15    18    19    1
    16    14    15    1
    17     2    21    1
    18    21    22    1
    19    22    23    1
    20    23    24    1
    21    24    27    1
    22    27    28   ar
    23    28    29   ar
    24    29    30    1
    25    29    31   ar
    26    31    32    1
    27    31    33   ar
    28    33    34    1
    29    33    35   ar
    30    24    25    1
    31    25    26    1
    32    10     5   ar
    33    26    21    1
    34    15     8    1
    35    35    27   ar
    36     3     4    1
    37    11    16    1
    38    19    20    1
@<TRIPOS>MOLECULE
*****
 35 38 0 0 0
SMALL
GASTEIGER

@<TRIPOS>ATOM
      1 O           0.7402    3.0759   22.1610 O.2     1  UNL1       -0.2748
      2 C          -0.6041    2.6647   21.6380 C.2     1  UNL1        0.2257
      3 N          -0.7078    1.5829   20.6042 N.am    1  UNL1       -0.2839
      4 H          -1.5902    1.3130   20.2609 H       1  UNL1        0.1549
      5 C           0.5329    0.9122   20.0934 C.ar    1  UNL1        0.0517
      6 C           1.0953    1.2936   18.7562 C.ar    1  UNL1        0.0179
      7 C           2.3360    0.6230   18.2454 C.ar    1  UNL1        0.0395
      8 C           3.0142   -0.4292   19.0718 C.ar    1  UNL1        0.1525
      9 C           2.4518   -0.8107   20.4090 C.ar    1  UNL1        0.0861
     10 C           1.2111   -0.1400   20.9198 C.ar    1  UNL1        0.0324
     11 N           3.1300   -1.8628   21.2354 N.am    1  UNL1       -0.2786
     12 C           4.3706   -2.5335   20.7247 C.2     1  UNL1        0.2665
     13 O           5.0489   -3.5857   21.5511 O.2     1  UNL1       -0.2709
     14 C           4.9331   -2.1521   19.3874 C.3     1  UNL1        0.2438
     15 O           4.2549   -1.0999   18.5610 O.3     1  UNL1       -0.4686
     16 H           2.7608   -2.1132   22.1131 H       1  UNL1        0.1551
     17 C           6.1738   -2.8227   18.8767 C.3     1  UNL1        0.0849
     18 C           7.1470   -2.0559   18.0311 C.3     1  UNL1        0.1414
     19 O           6.6609   -0.9442   17.1493 O.3     1  UNL1       -0.3819
     20 H           6.0929   -1.3088   16.4527 H       1  UNL1        0.2104
     21 C          -1.8449    3.3354   22.1488 C.3     1  UNL1        0.0802
     22 C          -1.9311    3.7594   23.5850 C.3     1  UNL1        0.0305
     23 C          -3.1718    4.4301   24.0958 C.3     1  UNL1        0.0913
     24 N          -4.3262    4.6767   23.1703 N.pl3   1  UNL1       -0.3074
     25 C          -4.2400    4.2527   21.7341 C.3     1  UNL1        0.0913
     26 C          -2.9993    3.5820   21.2234 C.3     1  UNL1        0.0305
     27 C          -5.5669    5.3474   23.6811 C.ar    1  UNL1        0.0525
     28 C          -5.8701    5.3451   25.1502 C.ar    1  UNL1        0.0466
     29 C          -7.1107    6.0158   25.6609 C.ar    1  UNL1        0.1709
     30 F          -7.4140    6.0135   27.1300 F       1  UNL1       -0.2017
     31 C          -8.0482    6.6888   24.7027 C.ar    1  UNL1        0.1947
     32 F          -9.2889    7.3595   25.2135 F       1  UNL1       -0.1994
     33 C          -7.7450    6.6911   23.2336 C.ar    1  UNL1        0.1709
     34 F          -8.6825    7.3640   22.2754 F       1  UNL1       -0.2017
     35 C          -6.5044    6.0204   22.7229 C.ar    1  UNL1        0.0466
@<TRIPOS>BOND
     1     1     2    2
     2     2     3   am
     3     3     5    1
     4     5     6   ar
     5     6     7   ar
     6     7     8   ar
     7     8     9   ar
     8     9    10   ar
     9     9    11    1
    10    11    12   am
    11    12    13    2
    12    12    14    1
    13    14    17    1
    14    17    18    1
    15    18    19    1
    16    14    15    1
    17     2    21    1
    18    21    22    1
    19    22    23    1
    20    23    24    1
    21    24    27    1
    22    27    28   ar
    23    28    29   ar
    24    29    30    1
    25    29    31   ar
    26    31    32    1
    27    31    33   ar
    28    33    34    1
    29    33    35   ar
    30    24    25    1
    31    25    26    1
    32    10     5   ar
    33    26    21    1
    34    15     8    1
    35    35    27   ar
    36     3     4    1
    37    11    16    1
    38    19    20    1
@<TRIPOS>MOLECULE
*****
 35 38 0 0 0
SMALL
GASTEIGER

@<TRIPOS>ATOM
      1 O          -1.7334    0.6212   28.2378 O.2     1  UNL1       -0.2748
      2 C          -0.6039    1.5792   28.4758 C.2     1  UNL1        0.2257
      3 N          -0.5178    2.8492   27.6823 N.am    1  UNL1       -0.2839
      4 H           0.2235    3.4780   27.8385 H       1  UNL1        0.1549
      5 C          -1.5612    3.1613   26.6507 C.ar    1  UNL1        0.0517
      6 C          -2.9405    3.5673   27.0780 C.ar    1  UNL1        0.0179
      7 C          -3.9838    3.8793   26.0464 C.ar    1  UNL1        0.0395
      8 C          -3.6478    3.7853   24.5876 C.ar    1  UNL1        0.1525
      9 C          -2.2685    3.3793   24.1603 C.ar    1  UNL1        0.0861
     10 C          -1.2252    3.0673   25.1918 C.ar    1  UNL1        0.0324
     11 N          -1.9325    3.2853   22.7014 N.am    1  UNL1       -0.2786
     12 C          -2.9758    3.5973   21.6699 C.2     1  UNL1        0.2665
     13 O          -2.6397    3.5034   20.2110 O.2     1  UNL1       -0.2709
     14 C          -4.3552    4.0034   22.0972 C.3     1  UNL1        0.2438
     15 O          -4.6912    4.0973   23.5560 O.3     1  UNL1       -0.4686
     16 H          -1.0272    3.0188   22.4210 H       1  UNL1        0.1551
     17 C          -5.3984    4.3154   21.0656 C.3     1  UNL1        0.0849
     18 C          -6.7017    4.9321   21.4796 C.3     1  UNL1        0.1414
     19 O          -7.6100    4.2026   22.4244 O.3     1  UNL1       -0.3819
     20 H          -7.9402    3.3964   21.9978 H       1  UNL1        0.2104
     21 C           0.4395    1.2672   29.5073 C.3     1  UNL1        0.0802
     22 C           0.5816    2.1407   30.7184 C.3     1  UNL1        0.0305
     23 C           1.6249    1.8286   31.7499 C.3     1  UNL1        0.0913
     24 N           2.5261    0.6430   31.5703 N.pl3   1  UNL1       -0.3074
     25 C           2.3840   -0.2305   30.3592 C.3     1  UNL1        0.0913
     26 C           1.3407    0.0816   29.3277 C.3     1  UNL1        0.0305
     27 C           3.5695    0.3310   32.6019 C.ar    1  UNL1        0.0525
     28 C           3.5949    1.0888   33.8961 C.ar    1  UNL1        0.0466
     29 C           4.6382    0.7768   34.9276 C.ar    1  UNL1        0.1709
     30 F           4.6636    1.5346   36.2218 F       1  UNL1       -0.2017
     31 C           5.6562   -0.2931   34.6649 C.ar    1  UNL1        0.1947
     32 F           6.6996   -0.6052   35.6964 F       1  UNL1       -0.1994
     33 C           5.6308   -1.0510   33.3707 C.ar    1  UNL1        0.1709
     34 F           6.6488   -2.1209   33.1080 F       1  UNL1       -0.2017
     35 C           4.5875   -0.7389   32.3392 C.ar    1  UNL1        0.0466
@<TRIPOS>BOND
     1     1     2    2
     2     2     3   am
     3     3     5    1
     4     5     6   ar
     5     6     7   ar
     6     7     8   ar
     7     8     9   ar
     8     9    10   ar
     9     9    11    1
    10    11    12   am
    11    12    13    2
    12    12    14    1
    13    14    17    1
    14    17    18    1
    15    18    19    1
    16    14    15    1
    17     2    21    1
    18    21    22    1
    19    22    23    1
    20    23    24    1
    21    24    27    1
    22    27    28   ar
    23    28    29   ar
    24    29    30    1
    25    29    31   ar
    26    31    32    1
    27    31    33   ar
    28    33    34    1
    29    33    35   ar
    30    24    25    1
    31    25    26    1
    32    10     5   ar
    33    26    21    1
    34    15     8    1
    35    35    27   ar
    36     3     4    1
    37    11    16    1
    38    19    20    1
@<TRIPOS>MOLECULE
*****
 35 38 0 0 0
SMALL
GASTEIGER

@<TRIPOS>ATOM
      1 O           0.9484    3.7872   28.0490 O.2     1  UNL1       -0.2748
      2 C          -0.1445    2.7998   27.7649 C.2     1  UNL1        0.2257
      3 N          -0.3219    1.6021   28.6503 N.am    1  UNL1       -0.2839
      4 H          -1.0392    0.9541   28.4638 H       1  UNL1        0.1549
      5 C           0.5936    1.3917   29.8198 C.ar    1  UNL1        0.0517
      6 C           0.4677    2.2599   31.0365 C.ar    1  UNL1        0.0179
      7 C           1.3831    2.0494   32.2060 C.ar    1  UNL1        0.0395
      8 C           2.4245    0.9708   32.1587 C.ar    1  UNL1        0.1525
      9 C           2.5504    0.1027   30.9420 C.ar    1  UNL1        0.0861
     10 C           1.6349    0.3131   29.7726 C.ar    1  UNL1        0.0324
     11 N           3.5917   -0.9759   30.8947 N.am    1  UNL1       -0.2786
     12 C           4.5072   -1.1864   32.0642 C.2     1  UNL1        0.2665
     13 O           5.5485   -2.2650   32.0169 O.2     1  UNL1       -0.2709
     14 C           4.3813   -0.3182   33.2810 C.3     1  UNL1        0.2438
     15 O           3.3399    0.7604   33.3282 O.3     1  UNL1       -0.4686
     16 H           3.6743   -1.5457   30.0962 H       1  UNL1        0.1551
     17 C           5.2967   -0.5286   34.4504 C.3     1  UNL1        0.0849
     18 C           4.8052   -0.2698   35.8438 C.3     1  UNL1        0.1414
     19 O           4.2027    1.0590   36.1919 O.3     1  UNL1       -0.3819
     20 H           4.8820    1.7485   36.1287 H       1  UNL1        0.2104
     21 C          -1.0599    3.0102   26.5954 C.3     1  UNL1        0.0802
     22 C          -0.5531    2.8017   25.1992 C.3     1  UNL1        0.0305
     23 C          -1.4685    3.0121   24.0297 C.3     1  UNL1        0.0913
     24 N          -2.8909    3.4310   24.2566 N.pl3   1  UNL1       -0.3074
     25 C          -3.3977    3.6396   25.6528 C.3     1  UNL1        0.0913
     26 C          -2.4823    3.4292   26.8222 C.3     1  UNL1        0.0305
     27 C          -3.8064    3.6415   23.0870 C.ar    1  UNL1        0.0525
     28 C          -3.2841    3.4902   21.6891 C.ar    1  UNL1        0.0466
     29 C          -4.1996    3.7006   20.5196 C.ar    1  UNL1        0.1709
     30 F          -3.6774    3.5494   19.1216 F       1  UNL1       -0.2017
     31 C          -5.6373    4.0623   20.7482 C.ar    1  UNL1        0.1947
     32 F          -6.5528    4.2727   19.5787 F       1  UNL1       -0.1994
     33 C          -6.1595    4.2135   22.1461 C.ar    1  UNL1        0.1709
     34 F          -7.5972    4.5752   22.3747 F       1  UNL1       -0.2017
     35 C          -5.2441    4.0031   23.3156 C.ar    1  UNL1        0.0466
@<TRIPOS>BOND
     1     1     2    2
     2     2     3   am
     3     3     5    1
     4     5     6   ar
     5     6     7   ar
     6     7     8   ar
     7     8     9   ar
     8     9    10   ar
     9     9    11    1
    10    11    12   am
    11    12    13    2
    12    12    14    1
    13    14    17    1
    14    17    18    1
    15    18    19    1
    16    14    15    1
    17     2    21    1
    18    21    22    1
    19    22    23    1
    20    23    24    1
    21    24    27    1
    22    27    28   ar
    23    28    29   ar
    24    29    30    1
    25    29    31   ar
    26    31    32    1
    27    31    33   ar
    28    33    34    1
    29    33    35   ar
    30    24    25    1
    31    25    26    1
    32    10     5   ar
    33    26    21    1
    34    15     8    1
    35    35    27   ar
    36     3     4    1
    37    11    16    1
    38    19    20    1
