@<TRIPOS>MOLECULE
*****
 40 45 0 0 0
SMALL
GASTEIGER

@<TRIPOS>ATOM
      1 C           3.9664   -1.6368   22.3222 C.ar    1  UNL1        0.2400
      2 N           2.9835   -0.5039   22.3002 N.ar    1  UNL1       -0.2090
      3 C           2.5253    0.1166   23.5867 C.ar    1  UNL1        0.1021
      4 C           2.8497   -0.1522   25.0708 C.ar    1  UNL1        0.0207
      5 C           3.5840   -1.0664   24.1354 C.ar    1  UNL1        0.0221
      6 C           4.4910   -2.1492   23.6307 C.ar    1  UNL1        0.1178
      7 N           5.4725   -3.2835   23.6114 N.pl3   1  UNL1       -0.2104
      8 S           6.4220   -4.3461   24.0796 S.O2    1  UNL1        0.0737
      9 O           6.2757   -4.2834   22.5881 O.2     1  UNL1       -0.1499
     10 O           7.2539   -5.3584   23.3496 O.2     1  UNL1       -0.1499
     11 C           7.3459   -5.3248   25.3130 C.ar    1  UNL1        0.1253
     12 C           8.2184   -6.3760   24.6935 C.ar    1  UNL1        0.0202
     13 C           9.0479   -7.2714   25.5653 C.ar    1  UNL1        0.0015
     14 C           9.0050   -7.1157   27.0566 C.ar    1  UNL1        0.0046
     15 C           8.1325   -6.0646   27.6761 C.ar    1  UNL1        0.0547
     16 C           7.3030   -5.1691   26.8043 C.ar    1  UNL1        0.0247
     17 C           8.1166   -5.9399   29.1708 C.2     1  UNL1        0.2459
     18 O           9.0841   -7.0317   29.5200 O.2     1  UNL1       -0.2701
     19 N           7.7823   -5.4558   30.5506 N.am    1  UNL1       -0.3009
     20 C           7.1657   -4.6647   31.6660 C.3     1  UNL1        0.0898
     21 C           6.3337   -3.6524   32.3960 C.3     1  UNL1        0.0230
     22 C           5.3764   -2.5285   32.6617 C.3     1  UNL1        0.0232
     23 C           4.3976   -1.4149   32.4341 C.3     1  UNL1        0.0922
     24 N           3.5034   -0.4322   31.7380 N.pl3   1  UNL1       -0.2932
     25 C           4.4606   -1.5561   31.4723 C.3     1  UNL1        0.0922
     26 C           5.4394   -2.6697   31.6999 C.3     1  UNL1        0.0232
     27 C           2.7905    0.3131   30.6487 C.ar    1  UNL1        0.1348
     28 N           2.2620    1.0099   31.8674 N.ar    1  UNL1       -0.2090
     29 C           1.2793    2.1338   31.7217 C.ar    1  UNL1        0.2000
     30 N           0.8252    2.5609   30.3574 N.ar    1  UNL1       -0.2239
     31 C           1.3537    1.8641   29.1388 C.ar    1  UNL1        0.0857
     32 C           0.9210    2.2530   27.5861 C.ar    1  UNL1        0.0192
     33 C           1.3846    1.6267   26.3044 C.ar    1  UNL1        0.0016
     34 C           2.3677    0.4942   26.3357 C.ar    1  UNL1        0.0017
     35 C           2.1901    0.8028   27.7928 C.ar    1  UNL1        0.0043
     36 C           2.3364    0.7402   29.2844 C.ar    1  UNL1        0.0493
     37 H           5.5361   -3.4261   22.6394 H       1  UNL1        0.1739
     38 H           8.3451   -6.0678   31.0778 H       1  UNL1        0.1497
     39 C           3.4854   -2.3459   19.8695 C.3     1  UNL1        0.2543
     40 O           4.4246   -2.2572   21.0357 O.3     1  UNL1       -0.4553
@<TRIPOS>BOND
     1    39    40    1
     2    40     1    1
     3     1     2   ar
     4     2     3   ar
     5     3     4   ar
     6     4     5   ar
     7     5     6   ar
     8     6     7    1
     9     7     8    1
    10     8     9    2
    11     8    10    2
    12     8    11    1
    13    11    12   ar
    14    12    13   ar
    15    13    14   ar
    16    14    15   ar
    17    15    16   ar
    18    15    17    1
    19    17    18    2
    20    17    19   am
    21    19    20    1
    22    20    21    1
    23    21    22    1
    24    22    23    1
    25    23    24    1
    26    24    25    1
    27    25    26    1
    28    24    27    1
    29    27    28   ar
    30    28    29   ar
    31    29    30   ar
    32    30    31   ar
    33    31    32   ar
    34    32    33   ar
    35    33    34   ar
    36    34    35   ar
    37    35    36   ar
    38     6     1   ar
    39    16    11   ar
    40    26    21    1
    41    36    27   ar
    42    34     4    1
    43    36    31   ar
    44     7    37    1
    45    19    38    1
@<TRIPOS>MOLECULE
*****
 40 45 0 0 0
SMALL
GASTEIGER

@<TRIPOS>ATOM
      1 C           0.4581    2.3712   26.9415 C.ar    1  UNL1        0.2400
      2 N           0.1035    2.5404   25.4938 N.ar    1  UNL1       -0.2090
      3 C           0.7753    1.6943   24.4532 C.ar    1  UNL1        0.1021
      4 C           1.8457    0.5850   24.5146 C.ar    1  UNL1        0.0207
      5 C           1.4961    1.1375   25.8646 C.ar    1  UNL1        0.0221
      6 C           1.4844    1.3559   27.3486 C.ar    1  UNL1        0.1178
      7 N           1.8118    1.2164   28.8057 N.pl3   1  UNL1       -0.2104
      8 S           2.4428    0.7341   30.0782 S.O2    1  UNL1        0.0737
      9 O           1.4294    1.8208   30.2824 O.2     1  UNL1       -0.1499
     10 O           2.2596    1.1249   31.5147 O.2     1  UNL1       -0.1499
     11 C           3.5590   -0.2901   31.0972 C.ar    1  UNL1        0.1253
     12 C           3.4612    0.0156   32.5624 C.ar    1  UNL1        0.0202
     13 C           4.3112   -0.7358   33.5436 C.ar    1  UNL1        0.0015
     14 C           5.2590   -1.7929   33.0596 C.ar    1  UNL1        0.0046
     15 C           5.3568   -2.0985   31.5943 C.ar    1  UNL1        0.0547
     16 C           4.5068   -1.3471   30.6131 C.ar    1  UNL1        0.0247
     17 C           6.3162   -3.1623   31.1494 C.2     1  UNL1        0.2459
     18 O           6.8766   -3.5624   32.4820 O.2     1  UNL1       -0.2701
     19 N           7.0912   -4.0943   30.2658 N.am    1  UNL1       -0.3009
     20 C           7.5977   -4.7936   29.0392 C.3     1  UNL1        0.0898
     21 C           7.7809   -5.1844   27.6026 C.3     1  UNL1        0.0230
     22 C           7.6209   -5.2244   26.1117 C.3     1  UNL1        0.0232
     23 C           7.1350   -4.9091   24.7281 C.3     1  UNL1        0.0922
     24 N           6.3760   -4.2730   23.6016 N.pl3   1  UNL1       -0.2932
     25 C           6.5360   -4.2330   25.0925 C.3     1  UNL1        0.0922
     26 C           7.0218   -4.5482   26.4762 C.3     1  UNL1        0.0232
     27 C           5.4260   -3.3846   22.8543 C.ar    1  UNL1        0.1348
     28 N           6.0297   -4.1714   21.7288 N.ar    1  UNL1       -0.2090
     29 C           5.5954   -3.9140   20.3163 C.ar    1  UNL1        0.2000
     30 N           4.5574   -2.8698   20.0293 N.ar    1  UNL1       -0.2239
     31 C           3.9537   -2.0831   21.1547 C.ar    1  UNL1        0.0857
     32 C           2.8015   -0.9080   20.9524 C.ar    1  UNL1        0.0192
     33 C           2.1347   -0.0661   21.9996 C.ar    1  UNL1        0.0016
     34 C           2.4953   -0.2420   23.4450 C.ar    1  UNL1        0.0017
     35 C           3.3745   -1.2537   22.7714 C.ar    1  UNL1        0.0043
     36 C           4.3880   -2.3405   22.5672 C.ar    1  UNL1        0.0493
     37 H           1.2063    1.8998   29.1740 H       1  UNL1        0.1739
     38 H           7.6264   -4.5583   30.9496 H       1  UNL1        0.1497
     39 C           0.3190    4.5838   28.2961 C.3     1  UNL1        0.2543
     40 O          -0.2138    3.2173   27.9820 O.3     1  UNL1       -0.4553
@<TRIPOS>BOND
     1    39    40    1
     2    40     1    1
     3     1     2   ar
     4     2     3   ar
     5     3     4   ar
     6     4     5   ar
     7     5     6   ar
     8     6     7    1
     9     7     8    1
    10     8     9    2
    11     8    10    2
    12     8    11    1
    13    11    12   ar
    14    12    13   ar
    15    13    14   ar
    16    14    15   ar
    17    15    16   ar
    18    15    17    1
    19    17    18    2
    20    17    19   am
    21    19    20    1
    22    20    21    1
    23    21    22    1
    24    22    23    1
    25    23    24    1
    26    24    25    1
    27    25    26    1
    28    24    27    1
    29    27    28   ar
    30    28    29   ar
    31    29    30   ar
    32    30    31   ar
    33    31    32   ar
    34    32    33   ar
    35    33    34   ar
    36    34    35   ar
    37    35    36   ar
    38     6     1   ar
    39    16    11   ar
    40    26    21    1
    41    36    27   ar
    42    34     4    1
    43    36    31   ar
    44     7    37    1
    45    19    38    1
@<TRIPOS>MOLECULE
*****
 40 45 0 0 0
SMALL
GASTEIGER

@<TRIPOS>ATOM
      1 C           5.6387   -3.5899   21.9499 C.ar    1  UNL1        0.2400
      2 N           4.7854   -2.7184   21.0767 N.ar    1  UNL1       -0.2090
      3 C           3.8747   -1.6995   21.6951 C.ar    1  UNL1        0.1021
      4 C           3.5723   -1.2894   23.1513 C.ar    1  UNL1        0.0207
      5 C           4.5862   -2.3902   23.0509 C.ar    1  UNL1        0.0221
      6 C           5.5813   -3.4425   23.4415 C.ar    1  UNL1        0.1178
      7 N           6.4497   -4.3322   24.2808 N.pl3   1  UNL1       -0.2104
      8 S           7.0972   -4.9629   25.4778 S.O2    1  UNL1        0.0737
      9 O           7.5589   -5.5363   24.1709 O.2     1  UNL1       -0.1499
     10 O           8.1156   -6.0542   25.6248 O.2     1  UNL1       -0.1499
     11 C           7.4197   -5.2092   27.2578 C.ar    1  UNL1        0.1253
     12 C           8.4299   -6.2847   27.5275 C.ar    1  UNL1        0.0202
     13 C           8.8126   -6.6171   28.9392 C.ar    1  UNL1        0.0015
     14 C           8.1852   -5.8741   30.0812 C.ar    1  UNL1        0.0046
     15 C           7.1750   -4.7986   29.8115 C.ar    1  UNL1        0.0547
     16 C           6.7923   -4.4662   28.3998 C.ar    1  UNL1        0.0247
     17 C           6.5699   -4.0782   30.9797 C.2     1  UNL1        0.2459
     18 O           7.2803   -4.7813   32.0982 O.2     1  UNL1       -0.2701
     19 N           5.7310   -3.1264   31.7799 N.am    1  UNL1       -0.3009
     20 C           4.7490   -2.0462   32.1251 C.3     1  UNL1        0.0898
     21 C           3.7306   -0.9548   31.9780 C.3     1  UNL1        0.0230
     22 C           2.7859    0.0296   31.3546 C.3     1  UNL1        0.0232
     23 C           2.0176    0.8003   30.3223 C.3     1  UNL1        0.0922
     24 N           1.5086    1.2738   28.9932 N.pl3   1  UNL1       -0.2932
     25 C           2.4532    0.2894   29.6166 C.3     1  UNL1        0.0922
     26 C           3.2216   -0.4813   30.6488 C.3     1  UNL1        0.0232
     27 C           1.3142    1.3988   27.5111 C.ar    1  UNL1        0.1348
     28 N           0.3687    2.4488   28.0147 N.ar    1  UNL1       -0.2090
     29 C          -0.4355    3.2616   27.0439 C.ar    1  UNL1        0.2000
     30 N          -0.2942    3.0245   25.5694 N.ar    1  UNL1       -0.2239
     31 C           0.6513    1.9746   25.0659 C.ar    1  UNL1        0.0857
     32 C           0.8859    1.6293   23.4612 C.ar    1  UNL1        0.0192
     33 C           1.7994    0.6079   22.8512 C.ar    1  UNL1        0.0016
     34 C           2.6492   -0.2594   23.7319 C.ar    1  UNL1        0.0017
     35 C           1.9172    0.5883   24.7297 C.ar    1  UNL1        0.0043
     36 C           1.4555    1.1617   26.0367 C.ar    1  UNL1        0.0493
     37 H           6.8900   -4.8485   23.5675 H       1  UNL1        0.1739
     38 H           6.0160   -3.3823   32.6868 H       1  UNL1        0.1497
     39 C           7.8897   -4.1933   20.8014 C.3     1  UNL1        0.2543
     40 O           6.5494   -4.6088   21.3314 O.3     1  UNL1       -0.4553
@<TRIPOS>BOND
     1    39    40    1
     2    40     1    1
     3     1     2   ar
     4     2     3   ar
     5     3     4   ar
     6     4     5   ar
     7     5     6   ar
     8     6     7    1
     9     7     8    1
    10     8     9    2
    11     8    10    2
    12     8    11    1
    13    11    12   ar
    14    12    13   ar
    15    13    14   ar
    16    14    15   ar
    17    15    16   ar
    18    15    17    1
    19    17    18    2
    20    17    19   am
    21    19    20    1
    22    20    21    1
    23    21    22    1
    24    22    23    1
    25    23    24    1
    26    24    25    1
    27    25    26    1
    28    24    27    1
    29    27    28   ar
    30    28    29   ar
    31    29    30   ar
    32    30    31   ar
    33    31    32   ar
    34    32    33   ar
    35    33    34   ar
    36    34    35   ar
    37    35    36   ar
    38     6     1   ar
    39    16    11   ar
    40    26    21    1
    41    36    27   ar
    42    34     4    1
    43    36    31   ar
    44     7    37    1
    45    19    38    1
@<TRIPOS>MOLECULE
*****
 40 45 0 0 0
SMALL
GASTEIGER

@<TRIPOS>ATOM
      1 C         -10.5711   -5.7235   17.5027 C.ar    1  UNL1        0.2400
      2 N          -9.6783   -4.5708   17.1501 N.ar    1  UNL1       -0.2090
      3 C         -10.2221   -3.1728   17.1531 C.ar    1  UNL1        0.1021
      4 C         -11.6100   -2.5732   17.4602 C.ar    1  UNL1        0.0207
      5 C         -11.5724   -4.0661   17.6007 C.ar    1  UNL1        0.0221
      6 C         -12.0075   -5.4783   17.8583 C.ar    1  UNL1        0.1178
      7 N         -12.8684   -6.6567   18.2051 N.pl3   1  UNL1       -0.2104
      8 S         -14.0616   -7.4736   18.6034 S.O2    1  UNL1        0.0737
      9 O         -12.8272   -8.2897   18.3588 O.2     1  UNL1       -0.1499
     10 O         -14.2631   -8.9462   18.8052 O.2     1  UNL1       -0.1499
     11 C         -15.7986   -7.7525   19.0915 C.ar    1  UNL1        0.1253
     12 C         -16.1180   -9.1998   19.3219 C.ar    1  UNL1        0.0202
     13 C         -17.5030   -9.6064   19.7297 C.ar    1  UNL1        0.0015
     14 C         -18.5686   -8.5658   19.9070 C.ar    1  UNL1        0.0046
     15 C         -18.2492   -7.1184   19.6765 C.ar    1  UNL1        0.0547
     16 C         -16.8642   -6.7118   19.2687 C.ar    1  UNL1        0.0247
     17 C         -19.3415   -6.1076   19.8638 C.2     1  UNL1        0.2459
     18 O         -20.4627   -7.0249   20.2532 O.2     1  UNL1       -0.2701
     19 N         -20.0649   -4.7949   19.9231 N.am    1  UNL1       -0.3009
     20 C         -20.3407   -3.3224   19.8477 C.3     1  UNL1        0.0898
     21 C         -20.1392   -1.8497   19.6459 C.3     1  UNL1        0.0230
     22 C         -19.4822   -0.5365   19.3395 C.3     1  UNL1        0.0232
     23 C         -18.4409    0.4749   18.9618 C.3     1  UNL1        0.0922
     24 N         -17.1282    1.0751   18.5537 N.pl3   1  UNL1       -0.2932
     25 C         -17.7852   -0.2382   18.8601 C.3     1  UNL1        0.0922
     26 C         -18.8264   -1.2496   19.2377 C.3     1  UNL1        0.0232
     27 C         -15.6862    1.1988   18.1594 C.ar    1  UNL1        0.1348
     28 N         -16.1171    2.6353   18.1287 N.ar    1  UNL1       -0.2090
     29 C         -15.1330    3.7058   17.7602 C.ar    1  UNL1        0.2000
     30 N         -13.7181    3.3397   17.4224 N.ar    1  UNL1       -0.2239
     31 C         -13.2873    1.9032   17.4531 C.ar    1  UNL1        0.0857
     32 C         -11.7520    1.3867   17.0987 C.ar    1  UNL1        0.0192
     33 C         -11.2167   -0.0145   17.0982 C.ar    1  UNL1        0.0016
     34 C         -12.1165   -1.1613   17.4520 C.ar    1  UNL1        0.0017
     35 C         -13.0368    0.0166   17.5770 C.ar    1  UNL1        0.0043
     36 C         -14.2713    0.8328   17.8216 C.ar    1  UNL1        0.0493
     37 H         -12.2056   -7.3774   18.1022 H       1  UNL1        0.1739
     38 H         -20.9569   -5.1134   20.1914 H       1  UNL1        0.1497
     39 C          -9.3826   -7.6782   18.7342 C.3     1  UNL1        0.2543
     40 O         -10.0273   -7.1215   17.4996 O.3     1  UNL1       -0.4553
@<TRIPOS>BOND
     1    39    40    1
     2    40     1    1
     3     1     2   ar
     4     2     3   ar
     5     3     4   ar
     6     4     5   ar
     7     5     6   ar
     8     6     7    1
     9     7     8    1
    10     8     9    2
    11     8    10    2
    12     8    11    1
    13    11    12   ar
    14    12    13   ar
    15    13    14   ar
    16    14    15   ar
    17    15    16   ar
    18    15    17    1
    19    17    18    2
    20    17    19   am
    21    19    20    1
    22    20    21    1
    23    21    22    1
    24    22    23    1
    25    23    24    1
    26    24    25    1
    27    25    26    1
    28    24    27    1
    29    27    28   ar
    30    28    29   ar
    31    29    30   ar
    32    30    31   ar
    33    31    32   ar
    34    32    33   ar
    35    33    34   ar
    36    34    35   ar
    37    35    36   ar
    38     6     1   ar
    39    16    11   ar
    40    26    21    1
    41    36    27   ar
    42    34     4    1
    43    36    31   ar
    44     7    37    1
    45    19    38    1
@<TRIPOS>MOLECULE
*****
 40 45 0 0 0
SMALL
GASTEIGER

@<TRIPOS>ATOM
      1 C           7.9655   -5.7207   25.7689 C.ar    1  UNL1        0.2400
      2 N           8.5218   -6.1203   27.1034 N.ar    1  UNL1       -0.2090
      3 C           8.0336   -5.4467   28.3516 C.ar    1  UNL1        0.1021
      4 C           6.9986   -4.3356   28.6241 C.ar    1  UNL1        0.0207
      5 C           7.1317   -4.6682   27.1675 C.ar    1  UNL1        0.0221
      6 C           6.9210   -4.6476   25.6825 C.ar    1  UNL1        0.1178
      7 N           6.3893   -4.2760   24.3301 N.pl3   1  UNL1       -0.2104
      8 S           5.5942   -3.5937   23.2567 S.O2    1  UNL1        0.0737
      9 O           6.5349   -4.6399   22.7368 O.2     1  UNL1       -0.1499
     10 O           5.5549   -3.7518   21.7656 O.2     1  UNL1       -0.1499
     11 C           4.3721   -2.4139   22.5876 C.ar    1  UNL1        0.1253
     12 C           4.2467   -2.4830   21.0945 C.ar    1  UNL1        0.0202
     13 C           3.2853   -1.5800   20.3801 C.ar    1  UNL1        0.0015
     14 C           2.4494   -0.6080   21.1588 C.ar    1  UNL1        0.0046
     15 C           2.5748   -0.5390   22.6519 C.ar    1  UNL1        0.0547
     16 C           3.5361   -1.4419   23.3663 C.ar    1  UNL1        0.0247
     17 C           1.7219    0.4458   23.3953 C.2     1  UNL1        0.2459
     18 O           0.9855    1.0563   22.2398 O.2     1  UNL1       -0.2701
     19 N           1.1113    1.2298   24.5189 N.am    1  UNL1       -0.3009
     20 C           0.8093    1.7279   25.9013 C.3     1  UNL1        0.0898
     21 C           0.8486    1.8860   27.3924 C.3     1  UNL1        0.0230
     22 C           1.2249    1.6872   28.8308 C.3     1  UNL1        0.0232
     23 C           1.8975    1.1529   30.0604 C.3     1  UNL1        0.0922
     24 N           2.7934    0.3411   30.9482 N.pl3   1  UNL1       -0.2932
     25 C           2.4171    0.5399   29.5099 C.3     1  UNL1        0.0922
     26 C           1.7446    1.0742   28.2802 C.3     1  UNL1        0.0232
     27 C           3.8157   -0.6604   31.3979 C.ar    1  UNL1        0.1348
     28 N           3.4054   -0.0593   32.7096 N.ar    1  UNL1       -0.2090
     29 C           4.0329   -0.5408   33.9842 C.ar    1  UNL1        0.2000
     30 N           5.0706   -1.6233   33.9470 N.ar    1  UNL1       -0.2239
     31 C           5.4808   -2.2243   32.6354 C.ar    1  UNL1        0.0857
     32 C           6.6153   -3.4233   32.4780 C.ar    1  UNL1        0.0192
     33 C           7.0978   -4.0915   31.2247 C.ar    1  UNL1        0.0016
     34 C           6.5360   -3.6857   29.8944 C.ar    1  UNL1        0.0017
     35 C           5.7942   -2.7891   30.8409 C.ar    1  UNL1        0.0043
     36 C           4.8534   -1.7428   31.3608 C.ar    1  UNL1        0.0493
     37 H           6.9145   -4.8956   23.7737 H       1  UNL1        0.1739
     38 H           0.4961    1.7998   24.0033 H       1  UNL1        0.1497
     39 C           9.2467   -7.6640   24.6148 C.3     1  UNL1        0.2543
     40 O           8.4538   -6.3943   24.5207 O.3     1  UNL1       -0.4553
@<TRIPOS>BOND
     1    39    40    1
     2    40     1    1
     3     1     2   ar
     4     2     3   ar
     5     3     4   ar
     6     4     5   ar
     7     5     6   ar
     8     6     7    1
     9     7     8    1
    10     8     9    2
    11     8    10    2
    12     8    11    1
    13    11    12   ar
    14    12    13   ar
    15    13    14   ar
    16    14    15   ar
    17    15    16   ar
    18    15    17    1
    19    17    18    2
    20    17    19   am
    21    19    20    1
    22    20    21    1
    23    21    22    1
    24    22    23    1
    25    23    24    1
    26    24    25    1
    27    25    26    1
    28    24    27    1
    29    27    28   ar
    30    28    29   ar
    31    29    30   ar
    32    30    31   ar
    33    31    32   ar
    34    32    33   ar
    35    33    34   ar
    36    34    35   ar
    37    35    36   ar
    38     6     1   ar
    39    16    11   ar
    40    26    21    1
    41    36    27   ar
    42    34     4    1
    43    36    31   ar
    44     7    37    1
    45    19    38    1
@<TRIPOS>MOLECULE
*****
 40 45 0 0 0
SMALL
GASTEIGER

@<TRIPOS>ATOM
      1 C           8.1591   -5.4935   27.6576 C.ar    1  UNL1        0.2400
      2 N           8.3769   -5.9152   26.2346 N.ar    1  UNL1       -0.2090
      3 C           7.6010   -5.2594   25.1309 C.ar    1  UNL1        0.1021
      4 C           6.5300   -4.1494   25.0992 C.ar    1  UNL1        0.0207
      5 C           7.0113   -4.4601   26.4855 C.ar    1  UNL1        0.0221
      6 C           7.1656   -4.4161   27.9769 C.ar    1  UNL1        0.1178
      7 N           6.9761   -4.0221   29.4118 N.pl3   1  UNL1       -0.2104
      8 S           6.4634   -3.3210   30.6347 S.O2    1  UNL1        0.0737
      9 O           7.5026   -4.3620   30.9282 O.2     1  UNL1       -0.1499
     10 O           6.7856   -3.4562   32.0933 O.2     1  UNL1       -0.1499
     11 C           5.4383   -2.1274   31.5606 C.ar    1  UNL1        0.1253
     12 C           5.6773   -2.1731   33.0407 C.ar    1  UNL1        0.0202
     13 C           4.9164   -1.2564   33.9520 C.ar    1  UNL1        0.0015
     14 C           3.9163   -0.2939   33.3832 C.ar    1  UNL1        0.0046
     15 C           3.6773   -0.2482   31.9031 C.ar    1  UNL1        0.0547
     16 C           4.4382   -1.1649   30.9918 C.ar    1  UNL1        0.0247
     17 C           2.6693    0.7278   31.3725 C.2     1  UNL1        0.2459
     18 O           2.2334    1.3581   32.6620 O.2     1  UNL1       -0.2701
     19 N           1.8048    1.4963   30.4176 N.am    1  UNL1       -0.3009
     20 C           1.1774    1.9740   29.1415 C.3     1  UNL1        0.0898
     21 C           0.8553    2.1092   27.6827 C.3     1  UNL1        0.0230
     22 C           0.8731    1.8872   26.1993 C.3     1  UNL1        0.0232
     23 C           1.2291    1.3320   24.8521 C.3     1  UNL1        0.0922
     24 N           1.8845    0.5040   23.7870 N.pl3   1  UNL1       -0.2932
     25 C           1.8667    0.7260   25.2704 C.3     1  UNL1        0.0922
     26 C           1.5108    1.2811   26.6176 C.3     1  UNL1        0.0232
     27 C           2.7686   -0.5074   23.1194 C.ar    1  UNL1        0.1348
     28 N           2.0532    0.0747   21.9364 N.ar    1  UNL1       -0.2090
     29 C           2.3545   -0.4281   20.5557 C.ar    1  UNL1        0.2000
     30 N           3.3713   -1.5131   20.3580 N.ar    1  UNL1       -0.2239
     31 C           4.0866   -2.0952   21.5409 C.ar    1  UNL1        0.0857
     32 C           5.2264   -3.2951   21.4383 C.ar    1  UNL1        0.0192
     33 C           5.9978   -3.9455   22.5482 C.ar    1  UNL1        0.0016
     34 C           5.7738   -3.5177   23.9683 C.ar    1  UNL1        0.0017
     35 C           4.8246   -2.6334   23.2151 C.ar    1  UNL1        0.0043
     36 C           3.7853   -1.5923   22.9216 C.ar    1  UNL1        0.0493
     37 H           7.6206   -4.6347   29.8345 H       1  UNL1        0.1739
     38 H           1.3320    2.0760   31.0576 H       1  UNL1        0.1497
     39 C           9.1523   -7.6334   28.7458 C.3     1  UNL1        0.2543
     40 O           8.9349   -6.1494   28.7612 O.3     1  UNL1       -0.4553
@<TRIPOS>BOND
     1    39    40    1
     2    40     1    1
     3     1     2   ar
     4     2     3   ar
     5     3     4   ar
     6     4     5   ar
     7     5     6   ar
     8     6     7    1
     9     7     8    1
    10     8     9    2
    11     8    10    2
    12     8    11    1
    13    11    12   ar
    14    12    13   ar
    15    13    14   ar
    16    14    15   ar
    17    15    16   ar
    18    15    17    1
    19    17    18    2
    20    17    19   am
    21    19    20    1
    22    20    21    1
    23    21    22    1
    24    22    23    1
    25    23    24    1
    26    24    25    1
    27    25    26    1
    28    24    27    1
    29    27    28   ar
    30    28    29   ar
    31    29    30   ar
    32    30    31   ar
    33    31    32   ar
    34    32    33   ar
    35    33    34   ar
    36    34    35   ar
    37    35    36   ar
    38     6     1   ar
    39    16    11   ar
    40    26    21    1
    41    36    27   ar
    42    34     4    1
    43    36    31   ar
    44     7    37    1
    45    19    38    1
@<TRIPOS>MOLECULE
*****
 40 45 0 0 0
SMALL
GASTEIGER

@<TRIPOS>ATOM
      1 C           7.2453   -4.6192   23.7782 C.ar    1  UNL1        0.2400
      2 N           7.0425   -4.6640   22.2926 N.ar    1  UNL1       -0.2090
      3 C           5.9876   -3.8102   21.6535 C.ar    1  UNL1        0.1021
      4 C           4.9608   -2.7994   22.2049 C.ar    1  UNL1        0.0207
      5 C           5.8172   -3.4079   23.2755 C.ar    1  UNL1        0.0221
      6 C           6.3933   -3.7207   24.6247 C.ar    1  UNL1        0.1178
      7 N           6.6263   -3.7038   26.1064 N.pl3   1  UNL1       -0.2104
      8 S           6.4912   -3.3591   27.5600 S.O2    1  UNL1        0.0737
      9 O           7.5632   -4.3695   27.2774 O.2     1  UNL1       -0.1499
     10 O           7.2173   -3.8261   28.7865 O.2     1  UNL1       -0.1499
     11 C           5.7837   -2.4991   29.0066 C.ar    1  UNL1        0.1253
     12 C           6.4370   -2.8903   30.2989 C.ar    1  UNL1        0.0202
     13 C           5.9763   -2.2771   31.5879 C.ar    1  UNL1        0.0015
     14 C           4.8623   -1.2726   31.5847 C.ar    1  UNL1        0.0046
     15 C           4.2090   -0.8813   30.2924 C.ar    1  UNL1        0.0547
     16 C           4.6697   -1.4946   29.0033 C.ar    1  UNL1        0.0247
     17 C           3.0986    0.1263   30.3301 C.2     1  UNL1        0.2459
     18 O           3.0556    0.3913   31.8059 O.2     1  UNL1       -0.2701
     19 N           2.0022    1.0468   29.8822 N.am    1  UNL1       -0.3009
     20 C           1.0387    1.7803   28.9968 C.3     1  UNL1        0.0898
     21 C           0.3126    2.2473   27.7702 C.3     1  UNL1        0.0230
     22 C          -0.0976    2.3973   26.3351 C.3     1  UNL1        0.0232
     23 C          -0.1472    2.2140   24.8472 C.3     1  UNL1        0.0922
     24 N           0.1690    1.7173   23.4677 N.pl3   1  UNL1       -0.2932
     25 C           0.5791    1.5673   24.9027 C.3     1  UNL1        0.0922
     26 C           0.6288    1.7505   26.3906 C.3     1  UNL1        0.0232
     27 C           0.8168    0.9609   22.3459 C.ar    1  UNL1        0.1348
     28 N          -0.2036    1.7668   21.5979 N.ar    1  UNL1       -0.2090
     29 C          -0.3148    1.6386   20.1075 C.ar    1  UNL1        0.2000
     30 N           0.5944    0.7045   19.3652 N.ar    1  UNL1       -0.2239
     31 C           1.6147   -0.1013   20.1132 C.ar    1  UNL1        0.0857
     32 C           2.6681   -1.1617   19.3954 C.ar    1  UNL1        0.0192
     33 C           3.7207   -2.0120   20.0428 C.ar    1  UNL1        0.0016
     34 C           3.9166   -1.9609   21.5290 C.ar    1  UNL1        0.0017
     35 C           2.7979   -0.9836   21.3210 C.ar    1  UNL1        0.0043
     36 C           1.7259    0.0269   21.6036 C.ar    1  UNL1        0.0493
     37 H           7.3604   -4.3575   26.1624 H       1  UNL1        0.1739
     38 H           1.7372    1.4195   30.7540 H       1  UNL1        0.1497
     39 C           8.0628   -6.9417   24.6073 C.3     1  UNL1        0.2543
     40 O           8.3002   -5.4730   24.4171 O.3     1  UNL1       -0.4553
@<TRIPOS>BOND
     1    39    40    1
     2    40     1    1
     3     1     2   ar
     4     2     3   ar
     5     3     4   ar
     6     4     5   ar
     7     5     6   ar
     8     6     7    1
     9     7     8    1
    10     8     9    2
    11     8    10    2
    12     8    11    1
    13    11    12   ar
    14    12    13   ar
    15    13    14   ar
    16    14    15   ar
    17    15    16   ar
    18    15    17    1
    19    17    18    2
    20    17    19   am
    21    19    20    1
    22    20    21    1
    23    21    22    1
    24    22    23    1
    25    23    24    1
    26    24    25    1
    27    25    26    1
    28    24    27    1
    29    27    28   ar
    30    28    29   ar
    31    29    30   ar
    32    30    31   ar
    33    31    32   ar
    34    32    33   ar
    35    33    34   ar
    36    34    35   ar
    37    35    36   ar
    38     6     1   ar
    39    16    11   ar
    40    26    21    1
    41    36    27   ar
    42    34     4    1
    43    36    31   ar
    44     7    37    1
    45    19    38    1
@<TRIPOS>MOLECULE
*****
 40 45 0 0 0
SMALL
GASTEIGER

@<TRIPOS>ATOM
      1 C          -1.3783    3.2265   21.9833 C.ar    1  UNL1        0.2400
      2 N          -2.0347    3.6771   23.2546 N.ar    1  UNL1       -0.2090
      3 C          -1.5002    3.2172   24.5786 C.ar    1  UNL1        0.1021
      4 C          -0.3263    2.3054   24.9918 C.ar    1  UNL1        0.0207
      5 C          -0.4529    2.4605   23.5052 C.ar    1  UNL1        0.0221
      6 C          -0.1875    2.3160   22.0360 C.ar    1  UNL1        0.1178
      7 N           0.4412    1.8873   20.7433 N.pl3   1  UNL1       -0.2104
      8 S           1.3650    1.2211   19.7673 S.O2    1  UNL1        0.0737
      9 O           0.3028    2.0570   19.1172 O.2     1  UNL1       -0.1499
     10 O           1.4354    1.2265   18.2690 O.2     1  UNL1       -0.1499
     11 C           2.7681    0.1708   19.2560 C.ar    1  UNL1        0.1253
     12 C           2.9366    0.1010   17.7672 C.ar    1  UNL1        0.0202
     13 C           4.0436   -0.7201   17.1754 C.ar    1  UNL1        0.0015
     14 C           4.9821   -1.4714   18.0725 C.ar    1  UNL1        0.0046
     15 C           4.8136   -1.4016   19.5613 C.ar    1  UNL1        0.0547
     16 C           3.7066   -0.5805   20.1531 C.ar    1  UNL1        0.0247
     17 C           5.7720   -2.1668   20.4249 C.2     1  UNL1        0.2459
     18 O           6.6304   -2.7796   19.3583 O.2     1  UNL1       -0.2701
     19 N           6.4480   -2.7303   21.6396 N.am    1  UNL1       -0.3009
     20 C           6.7681   -3.0310   23.0739 C.3     1  UNL1        0.0898
     21 C           6.6977   -3.0364   24.5723 C.3     1  UNL1        0.0230
     22 C           6.2445   -2.7459   25.9724 C.3     1  UNL1        0.0232
     23 C           5.4575   -2.1908   27.1224 C.3     1  UNL1        0.0922
     24 N           4.4221   -1.4315   27.8978 N.pl3   1  UNL1       -0.2932
     25 C           4.8753   -1.7221   26.4977 C.3     1  UNL1        0.0922
     26 C           5.6622   -2.2771   25.3477 C.3     1  UNL1        0.0232
     27 C           3.2503   -0.5501   28.2145 C.ar    1  UNL1        0.1348
     28 N           3.6949   -0.9436   29.5921 N.ar    1  UNL1       -0.2090
     29 C           2.9585   -0.4292   30.7934 C.ar    1  UNL1        0.2000
     30 N           1.7775    0.4787   30.6171 N.ar    1  UNL1       -0.2239
     31 C           1.3329    0.8721   29.2396 C.ar    1  UNL1        0.0857
     32 C           0.0438    1.8678   28.9292 C.ar    1  UNL1        0.0192
     33 C          -0.4840    2.3228   27.6009 C.ar    1  UNL1        0.0016
     34 C           0.1786    1.8673   26.3346 C.ar    1  UNL1        0.0017
     35 C           1.0070    1.1937   27.3882 C.ar    1  UNL1        0.0043
     36 C           2.0693    0.3577   28.0383 C.ar    1  UNL1        0.0493
     37 H          -0.1472    2.3611   20.1120 H       1  UNL1        0.1739
     38 H           7.1574   -3.2542   21.2020 H       1  UNL1        0.1497
     39 C          -3.2819    3.2638   20.2156 C.3     1  UNL1        0.2543
     40 O          -1.9128    3.6864   20.6594 O.3     1  UNL1       -0.4553
@<TRIPOS>BOND
     1    39    40    1
     2    40     1    1
     3     1     2   ar
     4     2     3   ar
     5     3     4   ar
     6     4     5   ar
     7     5     6   ar
     8     6     7    1
     9     7     8    1
    10     8     9    2
    11     8    10    2
    12     8    11    1
    13    11    12   ar
    14    12    13   ar
    15    13    14   ar
    16    14    15   ar
    17    15    16   ar
    18    15    17    1
    19    17    18    2
    20    17    19   am
    21    19    20    1
    22    20    21    1
    23    21    22    1
    24    22    23    1
    25    23    24    1
    26    24    25    1
    27    25    26    1
    28    24    27    1
    29    27    28   ar
    30    28    29   ar
    31    29    30   ar
    32    30    31   ar
    33    31    32   ar
    34    32    33   ar
    35    33    34   ar
    36    34    35   ar
    37    35    36   ar
    38     6     1   ar
    39    16    11   ar
    40    26    21    1
    41    36    27   ar
    42    34     4    1
    43    36    31   ar
    44     7    37    1
    45    19    38    1
@<TRIPOS>MOLECULE
*****
 40 45 0 0 0
SMALL
GASTEIGER

@<TRIPOS>ATOM
      1 C           7.3188   -4.8554   23.9411 C.ar    1  UNL1        0.2400
      2 N           6.9227   -4.6639   22.5071 N.ar    1  UNL1       -0.2090
      3 C           5.8539   -3.6738   22.1500 C.ar    1  UNL1        0.1021
      4 C           4.9776   -2.7112   22.9782 C.ar    1  UNL1        0.0207
      5 C           5.9226   -3.5155   23.8209 C.ar    1  UNL1        0.0221
      6 C           6.6461   -4.0570   25.0181 C.ar    1  UNL1        0.1178
      7 N           7.0697   -4.2769   26.4401 N.pl3   1  UNL1       -0.2104
      8 S           7.1476   -4.1516   27.9328 S.O2    1  UNL1        0.0737
      9 O           8.1033   -5.1567   27.3619 O.2     1  UNL1       -0.1499
     10 O           7.9933   -4.8338   28.9669 O.2     1  UNL1       -0.1499
     11 C           6.6930   -3.4893   29.5723 C.ar    1  UNL1        0.1253
     12 C           7.4803   -4.1032   30.6917 C.ar    1  UNL1        0.0202
     13 C           7.2329   -3.6723   32.1070 C.ar    1  UNL1        0.0015
     14 C           6.1981   -2.6274   32.4028 C.ar    1  UNL1        0.0046
     15 C           5.4108   -2.0135   31.2834 C.ar    1  UNL1        0.0547
     16 C           5.6583   -2.4444   29.8681 C.ar    1  UNL1        0.0247
     17 C           4.3850   -0.9719   31.6194 C.2     1  UNL1        0.2459
     18 O           4.5516   -0.9330   33.1096 O.2     1  UNL1       -0.2701
     19 N           3.3044    0.0569   31.4649 N.am    1  UNL1       -0.3009
     20 C           2.2860    0.9614   30.8365 C.3     1  UNL1        0.0898
     21 C           1.4403    1.6436   29.8024 C.3     1  UNL1        0.0230
     22 C           0.8588    2.0296   28.4747 C.3     1  UNL1        0.0232
     23 C           0.6046    2.0775   26.9972 C.3     1  UNL1        0.0922
     24 N           0.7052    1.7822   25.5300 N.pl3   1  UNL1       -0.2932
     25 C           1.2867    1.3962   26.8577 C.3     1  UNL1        0.0922
     26 C           1.5409    1.3483   28.3352 C.3     1  UNL1        0.0232
     27 C           1.1498    1.1756   24.2321 C.ar    1  UNL1        0.1348
     28 N           0.0978    2.1334   23.7566 N.ar    1  UNL1       -0.2090
     29 C          -0.2139    2.2390   22.2931 C.ar    1  UNL1        0.2000
     30 N           0.5264    1.3869   21.3052 N.ar    1  UNL1       -0.2239
     31 C           1.5783    0.4292   21.7807 C.ar    1  UNL1        0.0857
     32 C           2.4560   -0.5582   20.7787 C.ar    1  UNL1        0.0192
     33 C           3.5238   -1.5460   21.1448 C.ar    1  UNL1        0.0016
     34 C           3.9136   -1.7312   22.5813 C.ar    1  UNL1        0.0017
     35 C           2.8458   -0.6817   22.6733 C.ar    1  UNL1        0.0043
     36 C           1.8900    0.3236   23.2442 C.ar    1  UNL1        0.0493
     37 H           7.7591   -4.9655   26.2992 H       1  UNL1        0.1739
     38 H           3.1803    0.3046   32.4096 H       1  UNL1        0.1497
     39 C           8.0359   -7.2901   24.4958 C.3     1  UNL1        0.2543
     40 O           8.3876   -5.8455   24.2981 O.3     1  UNL1       -0.4553
@<TRIPOS>BOND
     1    39    40    1
     2    40     1    1
     3     1     2   ar
     4     2     3   ar
     5     3     4   ar
     6     4     5   ar
     7     5     6   ar
     8     6     7    1
     9     7     8    1
    10     8     9    2
    11     8    10    2
    12     8    11    1
    13    11    12   ar
    14    12    13   ar
    15    13    14   ar
    16    14    15   ar
    17    15    16   ar
    18    15    17    1
    19    17    18    2
    20    17    19   am
    21    19    20    1
    22    20    21    1
    23    21    22    1
    24    22    23    1
    25    23    24    1
    26    24    25    1
    27    25    26    1
    28    24    27    1
    29    27    28   ar
    30    28    29   ar
    31    29    30   ar
    32    30    31   ar
    33    31    32   ar
    34    32    33   ar
    35    33    34   ar
    36    34    35   ar
    37    35    36   ar
    38     6     1   ar
    39    16    11   ar
    40    26    21    1
    41    36    27   ar
    42    34     4    1
    43    36    31   ar
    44     7    37    1
    45    19    38    1
