@<TRIPOS>MOLECULE
*****
 59 65 0 0 0
SMALL
GASTEIGER

@<TRIPOS>ATOM
      1 C           4.8055   -3.1617   22.7256 C.3     1  UNL1        0.1894
      2 C           5.9916   -3.8507   23.3326 C.3     1  UNL1        0.0746
      3 C           6.2489   -3.2338   24.6755 C.3     1  UNL1        0.1555
      4 N           5.2217   -2.1636   24.8984 N.am    1  UNL1       -0.2678
      5 C           5.1067   -1.2911   26.1131 C.2     1  UNL1        0.2440
      6 O           6.0765   -1.4515   27.2462 O.2     1  UNL1       -0.2731
      7 C           4.3296   -2.1191   23.6933 C.3     1  UNL1        0.1373
      8 C           7.3414   -3.6194   25.6282 C.2     1  UNL1        0.2409
      9 O           8.7302   -3.0880   25.4314 O.2     1  UNL1       -0.2733
     10 N           7.0451   -4.5364   26.7777 N.am    1  UNL1       -0.2985
     11 H           6.1336   -4.8852   26.9069 H       1  UNL1        0.1498
     12 C           8.1377   -4.9220   27.7304 C.3     1  UNL1        0.1271
     13 C           9.3191   -5.6495   28.3003 C.3     1  UNL1        0.0290
     14 C           8.7731   -6.0405   26.9591 C.3     1  UNL1        0.0270
     15 C           7.8816   -3.9373   28.8327 C.2     1  UNL1        0.2564
     16 O           8.6689   -2.6621   28.8970 O.2     1  UNL1       -0.2718
     17 N           6.8384   -4.2278   29.8706 N.am    1  UNL1       -0.1875
     18 H           6.3217   -5.0648   29.8283 H       1  UNL1        0.1762
     19 S           6.5824   -3.2432   30.9728 S.O2    1  UNL1        0.0543
     20 O           7.5166   -4.0022   31.8678 O.2     1  UNL1       -0.1545
     21 O           5.6481   -2.4842   30.0777 O.2     1  UNL1       -0.1545
     22 C           6.3264   -2.2586   32.0750 C.3     1  UNL1        0.1490
     23 C           6.7456   -1.0535   32.8636 C.3     1  UNL1        0.0273
     24 C           5.4637   -1.7582   33.1954 C.3     1  UNL1        0.0273
     25 C           8.8247   -6.9121   25.7393 C.3     1  UNL1        0.0021
     26 C           9.5120   -7.9682   24.9255 C.3     1  UNL1        0.0001
     27 C           8.2269   -7.3655   24.4404 C.3     1  UNL1        0.0001
     28 O           4.2012   -3.4626   21.3861 O.3     1  UNL1       -0.4621
     29 C           5.4226   -1.0674   17.7776 C.ar    1  UNL1        0.1579
     30 C           6.3270   -2.1408   18.3065 C.ar    1  UNL1        0.1388
     31 N           5.9199   -2.9392   19.5093 N.ar    1  UNL1       -0.2069
     32 C           4.6084   -2.6642   20.1832 C.ar    1  UNL1        0.2249
     33 C           3.7039   -1.5907   19.6544 C.ar    1  UNL1        0.0570
     34 C           2.3924   -1.3157   20.3283 C.ar    1  UNL1        0.0161
     35 C           1.4880   -0.2423   19.7994 C.ar    1  UNL1        0.0578
     36 CL          0.1764    0.0328   20.4733 Cl      1  UNL1       -0.0822
     37 C           1.8951    0.5561   18.5966 C.ar    1  UNL1        0.0115
     38 C           3.2066    0.2811   17.9226 C.ar    1  UNL1        0.0041
     39 C           4.1110   -0.7923   18.4515 C.ar    1  UNL1        0.0401
     40 C           6.8644    0.8091   16.7053 C.3     1  UNL1        0.2525
     41 O           5.8297   -0.2690   16.5747 O.3     1  UNL1       -0.4699
     42 C           4.0221   -0.2582   26.1948 C.3     1  UNL1        0.1512
     43 C           4.2337    1.1006   25.5957 C.3     1  UNL1        0.0270
     44 C           3.0903    2.0674   25.5068 C.3     1  UNL1        0.0021
     45 C           3.3019    3.4262   24.9077 C.3     1  UNL1        0.0001
     46 C           4.6570    3.8182   24.3976 C.3     1  UNL1        0.0000
     47 C           5.8004    2.8515   24.4866 C.3     1  UNL1        0.0001
     48 C           5.5887    1.4926   25.0856 C.3     1  UNL1        0.0021
     49 N           2.7258   -0.5842   26.8755 N.am    1  UNL1       -0.2640
     50 C           2.5329   -0.2440   28.3236 C.2     1  UNL1        0.4021
     51 O           3.6363    0.4221   29.0910 O.2     1  UNL1       -0.2264
     52 H           2.0016   -1.0214   26.3719 H       1  UNL1        0.1532
     53 O           1.2366   -0.5699   29.0045 O.3     1  UNL1       -0.4295
     54 C          -0.0226    0.1365   28.5978 C.3     1  UNL1        0.2645
     55 C          -1.3559   -0.5026   28.8502 C.3     1  UNL1        0.0567
     56 C           0.0516    1.4819   27.9387 C.3     1  UNL1        0.4342
     57 F           0.1258    2.8272   27.2797 F       1  UNL1       -0.1664
     58 F           0.4012    2.1080   29.2562 F       1  UNL1       -0.1664
     59 F          -0.2980    0.8557   26.6213 F       1  UNL1       -0.1664
@<TRIPOS>BOND
     1    40    41    1
     2    41    29    1
     3    29    30   ar
     4    30    31   ar
     5    31    32   ar
     6    32    28    1
     7     1    28    1
     8     1     2    1
     9     2     3    1
    10     3     8    1
    11     8     9    2
    12     8    10   am
    13    12    10    1
    14    12    15    1
    15    15    16    2
    16    15    17   am
    17    17    19    1
    18    19    20    2
    19    19    21    2
    20    19    22    1
    21    22    23    1
    22    23    24    1
    23    12    13    1
    24    13    14    1
    25    14    25    1
    26    25    26    1
    27    26    27    1
    28     3     4    1
    29     4     5   am
    30     5     6    2
    31     5    42    1
    32    42    49    1
    33    49    50   am
    34    50    51    2
    35    50    53    1
    36    53    54    1
    37    54    55    1
    38    54    56    1
    39    56    57    1
    40    56    58    1
    41    56    59    1
    42    42    43    1
    43    43    44    1
    44    44    45    1
    45    45    46    1
    46    46    47    1
    47    47    48    1
    48     4     7    1
    49    32    33   ar
    50    33    34   ar
    51    34    35   ar
    52    35    36    1
    53    35    37   ar
    54    37    38   ar
    55    38    39   ar
    56    39    29   ar
    57     7     1    1
    58    39    33   ar
    59    14    12    1
    60    27    25    1
    61    48    43    1
    62    24    22    1
    63    10    11    1
    64    17    18    1
    65    49    52    1
@<TRIPOS>MOLECULE
*****
 59 65 0 0 0
SMALL
GASTEIGER

@<TRIPOS>ATOM
      1 C           1.4795    0.7219   19.4769 C.3     1  UNL1        0.1894
      2 C           0.5560    1.7920   18.9748 C.3     1  UNL1        0.0746
      3 C          -0.0597    2.4683   20.1637 C.3     1  UNL1        0.1555
      4 N           0.4833    1.8162   21.4006 N.am    1  UNL1       -0.2678
      5 C           0.1360    2.1796   22.8139 C.2     1  UNL1        0.2440
      6 O          -0.8375    3.2880   23.0857 O.2     1  UNL1       -0.2731
      7 C           1.4346    0.7369   20.9762 C.3     1  UNL1        0.1373
      8 C          -1.0454    3.5982   20.1228 C.2     1  UNL1        0.2409
      9 O          -0.5666    5.0039   19.9113 O.2     1  UNL1       -0.2733
     10 N          -2.5099    3.3225   20.2935 N.am    1  UNL1       -0.2985
     11 H          -2.8242    2.3999   20.4323 H       1  UNL1        0.1498
     12 C          -3.4956    4.4524   20.2526 C.3     1  UNL1        0.1271
     13 C          -4.4373    5.4822   19.7025 C.3     1  UNL1        0.0290
     14 C          -3.7114    4.5565   18.7719 C.3     1  UNL1        0.0270
     15 C          -3.6221    4.7409   21.7193 C.2     1  UNL1        0.2564
     16 O          -2.7456    5.7769   22.3582 O.2     1  UNL1       -0.2718
     17 N          -4.6252    3.9933   22.5468 N.am    1  UNL1       -0.1875
     18 H          -5.2006    3.3133   22.1274 H       1  UNL1        0.1762
     19 S          -4.7518    4.2817   24.0134 S.O2    1  UNL1        0.0543
     20 O          -5.6861    5.4151   23.7098 O.2     1  UNL1       -0.1545
     21 O          -3.8173    3.1481   24.3169 O.2     1  UNL1       -0.1545
     22 C          -4.8783    4.5701   25.4799 C.3     1  UNL1        0.1490
     23 C          -4.3697    4.4166   26.8826 C.3     1  UNL1        0.0273
     24 C          -5.6062    5.2232   26.6173 C.3     1  UNL1        0.0273
     25 C          -3.4168    4.0820   17.3797 C.3     1  UNL1        0.0021
     26 C          -3.8598    3.4025   16.1180 C.3     1  UNL1        0.0001
     27 C          -2.4637    3.9397   16.2302 C.3     1  UNL1        0.0001
     28 O           2.3034   -0.2010   18.6288 O.3     1  UNL1       -0.4621
     29 C           6.7591   -0.4225   19.2185 C.ar    1  UNL1        0.1579
     30 C           6.1122    0.8863   18.8744 C.ar    1  UNL1        0.1388
     31 N           4.6270    0.9602   18.6778 N.ar    1  UNL1       -0.2069
     32 C           3.7886   -0.2748   18.8253 C.ar    1  UNL1        0.2249
     33 C           4.4354   -1.5838   19.1694 C.ar    1  UNL1        0.0570
     34 C           3.5971   -2.8188   19.3170 C.ar    1  UNL1        0.0161
     35 C           4.2439   -4.1276   19.6610 C.ar    1  UNL1        0.0578
     36 CL          3.4055   -5.3628   19.8086 Cl      1  UNL1       -0.0822
     37 C           5.7292   -4.2015   19.8576 C.ar    1  UNL1        0.0115
     38 C           6.5675   -2.9665   19.7101 C.ar    1  UNL1        0.0041
     39 C           5.9207   -1.6576   19.3660 C.ar    1  UNL1        0.0401
     40 C           9.1301    0.5726   18.8470 C.3     1  UNL1        0.2525
     41 O           8.2443   -0.4963   19.4150 O.3     1  UNL1       -0.4699
     42 C           0.7621    1.4347   23.9554 C.3     1  UNL1        0.1512
     43 C           2.2296    1.1251   23.9339 C.3     1  UNL1        0.0270
     44 C           3.2267    2.2304   23.7497 C.3     1  UNL1        0.0021
     45 C           4.6943    1.9208   23.7282 C.3     1  UNL1        0.0001
     46 C           5.1648    0.5058   23.8909 C.3     1  UNL1        0.0000
     47 C           4.1676   -0.5996   24.0751 C.3     1  UNL1        0.0001
     48 C           2.7001   -0.2899   24.0966 C.3     1  UNL1        0.0021
     49 N          -0.0793    0.9994   25.1183 N.am    1  UNL1       -0.2640
     50 C          -0.2911    1.9255   26.2791 C.2     1  UNL1        0.4021
     51 O           0.3385    3.2870   26.2768 O.2     1  UNL1       -0.2264
     52 H          -0.4926    0.1058   25.1198 H       1  UNL1        0.1532
     53 O          -1.1325    1.4904   27.4421 O.3     1  UNL1       -0.4295
     54 C          -0.5832    0.5175   28.4429 C.3     1  UNL1        0.2645
     55 C          -1.3870   -0.6854   28.8390 C.3     1  UNL1        0.0567
     56 C           0.7701    0.7475   29.0478 C.3     1  UNL1        0.4342
     57 F           2.1233    0.9775   29.6525 F       1  UNL1       -0.1664
     58 F           0.3085    2.0731   29.5766 F       1  UNL1       -0.1664
     59 F           1.2317   -0.5781   28.5188 F       1  UNL1       -0.1664
@<TRIPOS>BOND
     1    40    41    1
     2    41    29    1
     3    29    30   ar
     4    30    31   ar
     5    31    32   ar
     6    32    28    1
     7     1    28    1
     8     1     2    1
     9     2     3    1
    10     3     8    1
    11     8     9    2
    12     8    10   am
    13    12    10    1
    14    12    15    1
    15    15    16    2
    16    15    17   am
    17    17    19    1
    18    19    20    2
    19    19    21    2
    20    19    22    1
    21    22    23    1
    22    23    24    1
    23    12    13    1
    24    13    14    1
    25    14    25    1
    26    25    26    1
    27    26    27    1
    28     3     4    1
    29     4     5   am
    30     5     6    2
    31     5    42    1
    32    42    49    1
    33    49    50   am
    34    50    51    2
    35    50    53    1
    36    53    54    1
    37    54    55    1
    38    54    56    1
    39    56    57    1
    40    56    58    1
    41    56    59    1
    42    42    43    1
    43    43    44    1
    44    44    45    1
    45    45    46    1
    46    46    47    1
    47    47    48    1
    48     4     7    1
    49    32    33   ar
    50    33    34   ar
    51    34    35   ar
    52    35    36    1
    53    35    37   ar
    54    37    38   ar
    55    38    39   ar
    56    39    29   ar
    57     7     1    1
    58    39    33   ar
    59    14    12    1
    60    27    25    1
    61    48    43    1
    62    24    22    1
    63    10    11    1
    64    17    18    1
    65    49    52    1
@<TRIPOS>MOLECULE
*****
 59 65 0 0 0
SMALL
GASTEIGER

@<TRIPOS>ATOM
      1 C           2.3561   -0.5392   28.5426 C.3     1  UNL1        0.1894
      2 C           1.7006    0.5735   27.7795 C.3     1  UNL1        0.0746
      3 C           2.2882    0.5982   26.3996 C.3     1  UNL1        0.1555
      4 N           3.3070   -0.4991   26.3100 N.am    1  UNL1       -0.2678
      5 C           4.1380   -0.8346   25.1071 C.2     1  UNL1        0.2440
      6 O           3.9858   -0.0388   23.8447 O.2     1  UNL1       -0.2731
      7 C           3.3489   -1.2021   27.6344 C.3     1  UNL1        0.1373
      8 C           1.9216    1.5527   25.3022 C.2     1  UNL1        0.2409
      9 O           2.5149    2.9301   25.2768 O.2     1  UNL1       -0.2733
     10 N           0.9616    1.1298   24.2299 N.am    1  UNL1       -0.2985
     11 H           0.5722    0.2257   24.2466 H       1  UNL1        0.1498
     12 C           0.5950    2.0842   23.1325 C.3     1  UNL1        0.1271
     13 C          -0.1144    3.1839   22.3994 C.3     1  UNL1        0.0290
     14 C          -0.5193    2.8339   23.8006 C.3     1  UNL1        0.0270
     15 C           1.5819    1.6661   22.0831 C.2     1  UNL1        0.2564
     16 O           2.8989    2.3747   21.9673 O.2     1  UNL1       -0.2718
     17 N           1.2519    0.5394   21.1495 N.am    1  UNL1       -0.1875
     18 H           0.3875    0.0743   21.2254 H       1  UNL1        0.1762
     19 S           2.2388    0.1213   20.1002 S.O2    1  UNL1        0.0543
     20 O           1.8059    1.2684   19.2360 O.2     1  UNL1       -0.1545
     21 O           2.6717   -1.0258   20.9644 O.2     1  UNL1       -0.1545
     22 C           3.2257   -0.2968   19.0508 C.3     1  UNL1        0.1490
     23 C           3.5551   -1.0843   17.8175 C.3     1  UNL1        0.0273
     24 C           4.6059   -0.2334   18.4668 C.3     1  UNL1        0.0273
     25 C          -1.3963    3.0645   24.9955 C.3     1  UNL1        0.0021
     26 C          -1.6519    2.9203   26.4664 C.3     1  UNL1        0.0001
     27 C          -2.6598    3.6082   25.5940 C.3     1  UNL1        0.0001
     28 O           2.0691   -0.9217   29.9643 O.3     1  UNL1       -0.4621
     29 C           3.1189    1.8995   33.3093 C.ar    1  UNL1        0.1579
     30 C           1.9658    2.2089   32.4012 C.ar    1  UNL1        0.1388
     31 N           1.6159    1.2685   31.2863 N.ar    1  UNL1       -0.2069
     32 C           2.4191    0.0187   31.0793 C.ar    1  UNL1        0.2249
     33 C           3.5722   -0.2908   31.9874 C.ar    1  UNL1        0.0570
     34 C           4.3754   -1.5406   31.7805 C.ar    1  UNL1        0.0161
     35 C           5.5285   -1.8500   32.6885 C.ar    1  UNL1        0.0578
     36 CL          6.3317   -3.0999   32.4816 Cl      1  UNL1       -0.0822
     37 C           5.8784   -0.9096   33.8035 C.ar    1  UNL1        0.0115
     38 C           5.0752    0.3402   34.0104 C.ar    1  UNL1        0.0041
     39 C           3.9222    0.6496   33.1024 C.ar    1  UNL1        0.0401
     40 C           2.7862    2.7137   35.7539 C.3     1  UNL1        0.2525
     41 O           3.4688    2.8399   34.4243 O.3     1  UNL1       -0.4699
     42 C           5.1211   -1.9659   25.1665 C.3     1  UNL1        0.1512
     43 C           6.1828   -1.9820   26.2261 C.3     1  UNL1        0.0270
     44 C           6.4549   -3.2402   26.9961 C.3     1  UNL1        0.0021
     45 C           7.5166   -3.2563   28.0556 C.3     1  UNL1        0.0001
     46 C           8.3062   -2.0143   28.3451 C.3     1  UNL1        0.0000
     47 C           8.0341   -0.7561   27.5751 C.3     1  UNL1        0.0001
     48 C           6.9724   -0.7400   26.5156 C.3     1  UNL1        0.0021
     49 N           5.0426   -3.0811   24.1664 N.am    1  UNL1       -0.2640
     50 C           5.8748   -3.0302   22.9195 C.2     1  UNL1        0.4021
     51 O           6.7854   -1.8641   22.6726 O.2     1  UNL1       -0.2264
     52 H           4.4449   -3.8464   24.3285 H       1  UNL1        0.1532
     53 O           5.7963   -4.1453   21.9193 O.3     1  UNL1       -0.4295
     54 C           5.6472   -3.8344   20.4595 C.3     1  UNL1        0.2645
     55 C           6.7399   -3.1090   19.7317 C.3     1  UNL1        0.0567
     56 C           4.4053   -4.2491   19.7274 C.3     1  UNL1        0.4342
     57 F           3.1635   -4.6637   18.9954 F       1  UNL1       -0.1664
     58 F           5.0627   -3.9127   18.4218 F       1  UNL1       -0.1664
     59 F           3.7480   -4.5854   21.0331 F       1  UNL1       -0.1664
@<TRIPOS>BOND
     1    40    41    1
     2    41    29    1
     3    29    30   ar
     4    30    31   ar
     5    31    32   ar
     6    32    28    1
     7     1    28    1
     8     1     2    1
     9     2     3    1
    10     3     8    1
    11     8     9    2
    12     8    10   am
    13    12    10    1
    14    12    15    1
    15    15    16    2
    16    15    17   am
    17    17    19    1
    18    19    20    2
    19    19    21    2
    20    19    22    1
    21    22    23    1
    22    23    24    1
    23    12    13    1
    24    13    14    1
    25    14    25    1
    26    25    26    1
    27    26    27    1
    28     3     4    1
    29     4     5   am
    30     5     6    2
    31     5    42    1
    32    42    49    1
    33    49    50   am
    34    50    51    2
    35    50    53    1
    36    53    54    1
    37    54    55    1
    38    54    56    1
    39    56    57    1
    40    56    58    1
    41    56    59    1
    42    42    43    1
    43    43    44    1
    44    44    45    1
    45    45    46    1
    46    46    47    1
    47    47    48    1
    48     4     7    1
    49    32    33   ar
    50    33    34   ar
    51    34    35   ar
    52    35    36    1
    53    35    37   ar
    54    37    38   ar
    55    38    39   ar
    56    39    29   ar
    57     7     1    1
    58    39    33   ar
    59    14    12    1
    60    27    25    1
    61    48    43    1
    62    24    22    1
    63    10    11    1
    64    17    18    1
    65    49    52    1
@<TRIPOS>MOLECULE
*****
 59 65 0 0 0
SMALL
GASTEIGER

@<TRIPOS>ATOM
      1 C           0.7303    0.4656   20.2579 C.3     1  UNL1        0.1894
      2 C          -0.3838    1.3356   19.7560 C.3     1  UNL1        0.0746
      3 C          -0.6935    2.3501   20.8165 C.3     1  UNL1        0.1555
      4 N           0.2292    2.1070   21.9740 N.am    1  UNL1       -0.2678
      5 C           0.2655    2.8911   23.2523 C.2     1  UNL1        0.2440
      6 O          -0.6811    4.0365   23.4567 O.2     1  UNL1       -0.2731
      7 C           1.1092    0.9424   21.6287 C.3     1  UNL1        0.1373
      8 C          -1.7419    3.4197   20.7342 C.2     1  UNL1        0.2409
      9 O          -1.3404    4.8649   20.7345 O.2     1  UNL1       -0.2733
     10 N          -3.1917    3.0441   20.6515 N.am    1  UNL1       -0.2985
     11 H          -3.4553    2.0955   20.6513 H       1  UNL1        0.1498
     12 C          -4.2401    4.1138   20.5691 C.3     1  UNL1        0.1271
     13 C          -5.1652    5.1385   19.9827 C.3     1  UNL1        0.0290
     14 C          -4.2495    4.3559   19.0889 C.3     1  UNL1        0.0270
     15 C          -4.5948    4.2432   22.0209 C.2     1  UNL1        0.2564
     16 O          -5.8432    3.6001   22.5481 O.2     1  UNL1       -0.2718
     17 N          -3.7011    5.0156   22.9454 N.am    1  UNL1       -0.1875
     18 H          -2.8817    5.4377   22.5994 H       1  UNL1        0.1762
     19 S          -4.0558    5.1450   24.3970 S.O2    1  UNL1        0.0543
     20 O          -3.5956    3.7373   24.6350 O.2     1  UNL1       -0.1545
     21 O          -4.5161    6.5527   24.1591 O.2     1  UNL1       -0.1545
     22 C          -4.4106    5.2744   25.8487 C.3     1  UNL1        0.1490
     23 C          -5.4274    5.2015   26.9490 C.3     1  UNL1        0.0273
     24 C          -4.0080    5.5714   27.2628 C.3     1  UNL1        0.0273
     25 C          -3.7261    4.0438   17.7182 C.3     1  UNL1        0.0021
     26 C          -2.5812    3.9609   16.7526 C.3     1  UNL1        0.0001
     27 C          -3.9645    3.5860   16.3097 C.3     1  UNL1        0.0001
     28 O           1.3558   -0.6800   19.5188 O.3     1  UNL1       -0.4621
     29 C           5.4950   -0.2599   17.8039 C.ar    1  UNL1        0.1579
     30 C           4.5916    0.9349   17.8843 C.ar    1  UNL1        0.1388
     31 N           3.2119    0.7948   18.4560 N.ar    1  UNL1       -0.2069
     32 C           2.7355   -0.5400   18.9472 C.ar    1  UNL1        0.2249
     33 C           3.6389   -1.7348   18.8667 C.ar    1  UNL1        0.0570
     34 C           3.1625   -3.0696   19.3579 C.ar    1  UNL1        0.0161
     35 C           4.0658   -4.2644   19.2774 C.ar    1  UNL1        0.0578
     36 CL          3.5895   -5.5993   19.7686 Cl      1  UNL1       -0.0822
     37 C           5.4455   -4.1243   18.7058 C.ar    1  UNL1        0.0115
     38 C           5.9219   -2.7895   18.2146 C.ar    1  UNL1        0.0041
     39 C           5.0186   -1.5948   18.2951 C.ar    1  UNL1        0.0401
     40 C           7.8438    0.8498   17.8409 C.3     1  UNL1        0.2525
     41 O           6.8747   -0.1198   17.2322 O.3     1  UNL1       -0.4699
     42 C           1.2485    2.5297   24.3261 C.3     1  UNL1        0.1512
     43 C           0.7907    2.3980   25.7485 C.3     1  UNL1        0.0270
     44 C          -0.5060    1.7106   26.0584 C.3     1  UNL1        0.0021
     45 C          -0.9637    1.5789   27.4808 C.3     1  UNL1        0.0001
     46 C          -0.1248    2.1345   28.5932 C.3     1  UNL1        0.0000
     47 C           1.1719    2.8219   28.2833 C.3     1  UNL1        0.0001
     48 C           1.6297    2.9536   26.8609 C.3     1  UNL1        0.0021
     49 N           2.6892    2.3000   23.9775 N.am    1  UNL1       -0.2640
     50 C           3.3020    0.9453   24.1758 C.2     1  UNL1        0.4021
     51 O           2.4741   -0.1796   24.7226 O.2     1  UNL1       -0.2264
     52 H           3.2326    3.0383   23.6186 H       1  UNL1        0.1532
     53 O           4.7428    0.7155   23.8273 O.3     1  UNL1       -0.4295
     54 C           5.1163    0.2460   22.4525 C.3     1  UNL1        0.2645
     55 C           5.3564    1.2440   21.3587 C.3     1  UNL1        0.0567
     56 C           5.2496   -1.2214   22.1715 C.3     1  UNL1        0.4342
     57 F           5.3829   -2.6887   21.8905 F       1  UNL1       -0.1664
     58 F           6.7430   -1.0992   22.2417 F       1  UNL1       -0.1664
     59 F           3.7562   -1.3435   22.1014 F       1  UNL1       -0.1664
@<TRIPOS>BOND
     1    40    41    1
     2    41    29    1
     3    29    30   ar
     4    30    31   ar
     5    31    32   ar
     6    32    28    1
     7     1    28    1
     8     1     2    1
     9     2     3    1
    10     3     8    1
    11     8     9    2
    12     8    10   am
    13    12    10    1
    14    12    15    1
    15    15    16    2
    16    15    17   am
    17    17    19    1
    18    19    20    2
    19    19    21    2
    20    19    22    1
    21    22    23    1
    22    23    24    1
    23    12    13    1
    24    13    14    1
    25    14    25    1
    26    25    26    1
    27    26    27    1
    28     3     4    1
    29     4     5   am
    30     5     6    2
    31     5    42    1
    32    42    49    1
    33    49    50   am
    34    50    51    2
    35    50    53    1
    36    53    54    1
    37    54    55    1
    38    54    56    1
    39    56    57    1
    40    56    58    1
    41    56    59    1
    42    42    43    1
    43    43    44    1
    44    44    45    1
    45    45    46    1
    46    46    47    1
    47    47    48    1
    48     4     7    1
    49    32    33   ar
    50    33    34   ar
    51    34    35   ar
    52    35    36    1
    53    35    37   ar
    54    37    38   ar
    55    38    39   ar
    56    39    29   ar
    57     7     1    1
    58    39    33   ar
    59    14    12    1
    60    27    25    1
    61    48    43    1
    62    24    22    1
    63    10    11    1
    64    17    18    1
    65    49    52    1
@<TRIPOS>MOLECULE
*****
 59 65 0 0 0
SMALL
GASTEIGER

@<TRIPOS>ATOM
      1 C           3.4608   -0.7813   23.5366 C.3     1  UNL1        0.1894
      2 C           2.8492   -0.0942   24.7215 C.3     1  UNL1        0.0746
      3 C           3.7540   -0.3072   25.8988 C.3     1  UNL1        0.1555
      4 N           4.9247   -1.1259   25.4416 N.am    1  UNL1       -0.2678
      5 C           6.0748   -1.5731   26.2945 C.2     1  UNL1        0.2440
      6 O           6.1202   -1.2017   27.7470 O.2     1  UNL1       -0.2731
      7 C           4.7435   -1.4189   23.9817 C.3     1  UNL1        0.1373
      8 C           3.5277    0.2081   27.2892 C.2     1  UNL1        0.2409
      9 O           3.5959    1.6812   27.5636 O.2     1  UNL1       -0.2733
     10 N           3.2332   -0.7497   28.4054 N.am    1  UNL1       -0.2985
     11 H           3.1884   -1.7166   28.2254 H       1  UNL1        0.1498
     12 C           3.0070   -0.2345   29.7958 C.3     1  UNL1        0.1271
     13 C           2.2988    0.3256   30.9937 C.3     1  UNL1        0.0290
     14 C           1.5407    0.0734   29.7242 C.3     1  UNL1        0.0270
     15 C           4.3948   -0.3634   30.3504 C.2     1  UNL1        0.2564
     16 O           5.3690    0.7677   30.2038 O.2     1  UNL1       -0.2718
     17 N           4.8082   -1.6233   31.0516 N.am    1  UNL1       -0.1875
     18 H           4.1687   -2.3657   31.1478 H       1  UNL1        0.1762
     19 S           6.1959   -1.7522   31.6062 S.O2    1  UNL1        0.0543
     20 O           5.7962   -0.9323   32.7969 O.2     1  UNL1       -0.1545
     21 O           6.5956   -2.5722   30.4153 O.2     1  UNL1       -0.1545
     22 C           7.5836   -1.8811   32.1607 C.3     1  UNL1        0.1490
     23 C           8.7425   -2.7385   32.5750 C.3     1  UNL1        0.0273
     24 C           8.8283   -1.2468   32.7070 C.3     1  UNL1        0.0273
     25 C           0.2564    0.1055   28.9498 C.3     1  UNL1        0.0021
     26 C          -1.1121   -0.4463   28.6803 C.3     1  UNL1        0.0001
     27 C          -0.5995    0.7130   27.8781 C.3     1  UNL1        0.0001
     28 O           2.8899   -0.8234   22.1502 O.3     1  UNL1       -0.4621
     29 C           5.6051   -0.4120   18.5854 C.ar    1  UNL1        0.1579
     30 C           5.2598    0.7937   19.4082 C.ar    1  UNL1        0.1388
     31 N           4.3547    0.6565   20.5965 N.ar    1  UNL1       -0.2069
     32 C           3.7950   -0.6863   20.9619 C.ar    1  UNL1        0.2249
     33 C           4.1403   -1.8920   20.1391 C.ar    1  UNL1        0.0570
     34 C           3.5807   -3.2348   20.5045 C.ar    1  UNL1        0.0161
     35 C           3.9260   -4.4404   19.6817 C.ar    1  UNL1        0.0578
     36 CL          3.3663   -5.7833   20.0472 Cl      1  UNL1       -0.0822
     37 C           4.8311   -4.3033   18.4934 C.ar    1  UNL1        0.0115
     38 C           5.3908   -2.9605   18.1280 C.ar    1  UNL1        0.0041
     39 C           5.0454   -1.7549   18.9508 C.ar    1  UNL1        0.0401
     40 C           6.3271    0.8678   16.4427 C.3     1  UNL1        0.2525
     41 O           6.5102   -0.2748   17.3971 O.3     1  UNL1       -0.4699
     42 C           7.1794   -2.3917   25.6948 C.3     1  UNL1        0.1512
     43 C           7.3047   -2.5052   24.2044 C.3     1  UNL1        0.0270
     44 C           6.8374   -3.7470   23.5048 C.3     1  UNL1        0.0021
     45 C           6.9627   -3.8604   22.0143 C.3     1  UNL1        0.0001
     46 C           7.5553   -2.7320   21.2234 C.3     1  UNL1        0.0000
     47 C           8.0226   -1.4902   21.9230 C.3     1  UNL1        0.0001
     48 C           7.8973   -1.3767   23.4135 C.3     1  UNL1        0.0021
     49 N           8.1587   -3.0969   26.5856 N.am    1  UNL1       -0.2640
     50 C           7.8521   -4.4739   27.0955 C.2     1  UNL1        0.4021
     51 O           6.5662   -5.1457   26.7145 O.2     1  UNL1       -0.2264
     52 H           9.0027   -2.6561   26.8357 H       1  UNL1        0.1532
     53 O           8.8314   -5.1792   27.9863 O.3     1  UNL1       -0.4295
     54 C           8.3650   -6.2843   28.8871 C.3     1  UNL1        0.2645
     55 C           8.4153   -7.7075   28.4160 C.3     1  UNL1        0.0567
     56 C           7.8484   -5.9660   30.2589 C.3     1  UNL1        0.4342
     57 F           7.3318   -5.6479   31.6306 F       1  UNL1       -0.1664
     58 F           9.2361   -6.0992   30.8124 F       1  UNL1       -0.1664
     59 F           6.4606   -5.8329   29.7053 F       1  UNL1       -0.1664
@<TRIPOS>BOND
     1    40    41    1
     2    41    29    1
     3    29    30   ar
     4    30    31   ar
     5    31    32   ar
     6    32    28    1
     7     1    28    1
     8     1     2    1
     9     2     3    1
    10     3     8    1
    11     8     9    2
    12     8    10   am
    13    12    10    1
    14    12    15    1
    15    15    16    2
    16    15    17   am
    17    17    19    1
    18    19    20    2
    19    19    21    2
    20    19    22    1
    21    22    23    1
    22    23    24    1
    23    12    13    1
    24    13    14    1
    25    14    25    1
    26    25    26    1
    27    26    27    1
    28     3     4    1
    29     4     5   am
    30     5     6    2
    31     5    42    1
    32    42    49    1
    33    49    50   am
    34    50    51    2
    35    50    53    1
    36    53    54    1
    37    54    55    1
    38    54    56    1
    39    56    57    1
    40    56    58    1
    41    56    59    1
    42    42    43    1
    43    43    44    1
    44    44    45    1
    45    45    46    1
    46    46    47    1
    47    47    48    1
    48     4     7    1
    49    32    33   ar
    50    33    34   ar
    51    34    35   ar
    52    35    36    1
    53    35    37   ar
    54    37    38   ar
    55    38    39   ar
    56    39    29   ar
    57     7     1    1
    58    39    33   ar
    59    14    12    1
    60    27    25    1
    61    48    43    1
    62    24    22    1
    63    10    11    1
    64    17    18    1
    65    49    52    1
@<TRIPOS>MOLECULE
*****
 59 65 0 0 0
SMALL
GASTEIGER

@<TRIPOS>ATOM
      1 C           2.7855   -0.5685   27.6184 C.3     1  UNL1        0.1894
      2 C           3.8916   -1.5748   27.5010 C.3     1  UNL1        0.0746
      3 C           4.7014   -1.2339   26.2852 C.3     1  UNL1        0.1555
      4 N           4.0958   -0.0168   25.6513 N.am    1  UNL1       -0.2678
      5 C           4.5878    0.6688   24.4111 C.2     1  UNL1        0.2440
      6 O           5.7918    0.1400   23.6894 O.2     1  UNL1       -0.2731
      7 C           2.9117    0.3945   26.4752 C.3     1  UNL1        0.1373
      8 C           5.9055   -1.9791   25.7904 C.2     1  UNL1        0.2409
      9 O           7.2754   -1.3960   25.9720 O.2     1  UNL1       -0.2733
     10 N           5.7395   -3.3076   25.1138 N.am    1  UNL1       -0.2985
     11 H           4.8403   -3.6904   24.9946 H       1  UNL1        0.1498
     12 C           6.9435   -4.0529   24.6190 C.3     1  UNL1        0.1271
     13 C           8.1317   -4.9683   24.6161 C.3     1  UNL1        0.0290
     14 C           7.3162   -4.8017   25.8640 C.3     1  UNL1        0.0270
     15 C           6.9889   -3.5628   23.2019 C.2     1  UNL1        0.2564
     16 O           8.1739   -2.7819   22.7161 O.2     1  UNL1       -0.2718
     17 N           5.8494   -3.8537   22.2709 N.am    1  UNL1       -0.1875
     18 H           5.0717   -4.3662   22.5897 H       1  UNL1        0.1762
     19 S           5.8949   -3.3636   20.8539 S.O2    1  UNL1        0.0543
     20 O           5.2588   -2.0736   21.2797 O.2     1  UNL1       -0.1545
     21 O           6.5310   -4.6537   20.4282 O.2     1  UNL1       -0.1545
     22 C           5.9403   -2.8736   19.4370 C.3     1  UNL1        0.1490
     23 C           5.2963   -2.7335   18.0896 C.3     1  UNL1        0.0273
     24 C           6.6633   -2.1648   18.3302 C.3     1  UNL1        0.0273
     25 C           7.0605   -5.1379   27.3034 C.3     1  UNL1        0.0021
     26 C           6.2640   -4.9476   28.5601 C.3     1  UNL1        0.0001
     27 C           7.4141   -5.9104   28.5396 C.3     1  UNL1        0.0001
     28 O           1.7373   -0.5315   28.6906 O.3     1  UNL1       -0.4621
     29 C           1.8137    2.7197   31.8008 C.ar    1  UNL1        0.1579
     30 C           1.0632    2.9259   30.5187 C.ar    1  UNL1        0.1388
     31 N           1.0377    1.8421   29.4819 N.ar    1  UNL1       -0.2069
     32 C           1.7628    0.5522   29.7274 C.ar    1  UNL1        0.2249
     33 C           2.5134    0.3460   31.0096 C.ar    1  UNL1        0.0570
     34 C           3.2386   -0.9439   31.2551 C.ar    1  UNL1        0.0161
     35 C           3.9892   -1.1500   32.5373 C.ar    1  UNL1        0.0578
     36 CL          4.7143   -2.4400   32.7828 Cl      1  UNL1       -0.0822
     37 C           4.0146   -0.0663   33.5740 C.ar    1  UNL1        0.0115
     38 C           3.2895    1.2236   33.3285 C.ar    1  UNL1        0.0041
     39 C           2.5389    1.4298   32.0464 C.ar    1  UNL1        0.0401
     40 C           0.5925    4.5800   33.1416 C.3     1  UNL1        0.2525
     41 O           1.8392    3.8035   32.8376 O.3     1  UNL1       -0.4699
     42 C           3.8759    1.8830   23.8927 C.3     1  UNL1        0.1512
     43 C           3.8773    3.1519   24.6928 C.3     1  UNL1        0.0270
     44 C           2.5977    3.9045   24.9075 C.3     1  UNL1        0.0021
     45 C           2.5990    5.1733   25.7075 C.3     1  UNL1        0.0001
     46 C           3.8800    5.6896   26.2928 C.3     1  UNL1        0.0000
     47 C           5.1596    4.9370   26.0781 C.3     1  UNL1        0.0001
     48 C           5.1583    3.6681   25.2780 C.3     1  UNL1        0.0021
     49 N           3.1627    1.8284   22.5743 N.am    1  UNL1       -0.2640
     50 C           1.7434    1.3476   22.5088 C.2     1  UNL1        0.4021
     51 O           1.0373    0.9214   23.7617 O.2     1  UNL1       -0.2264
     52 H           3.6261    2.1082   21.7519 H       1  UNL1        0.1532
     53 O           1.0300    1.2930   21.1904 O.3     1  UNL1       -0.4295
     54 C           1.7376    0.7694   19.9758 C.3     1  UNL1        0.2645
     55 C           2.0666    1.6951   18.8423 C.3     1  UNL1        0.0567
     56 C           2.1162   -0.6797   19.8947 C.3     1  UNL1        0.4342
     57 F           2.4948   -2.1288   19.8137 F       1  UNL1       -0.1664
     58 F           0.7147   -1.0665   20.2640 F       1  UNL1       -0.1664
     59 F           3.5176   -0.2929   19.5255 F       1  UNL1       -0.1664
@<TRIPOS>BOND
     1    40    41    1
     2    41    29    1
     3    29    30   ar
     4    30    31   ar
     5    31    32   ar
     6    32    28    1
     7     1    28    1
     8     1     2    1
     9     2     3    1
    10     3     8    1
    11     8     9    2
    12     8    10   am
    13    12    10    1
    14    12    15    1
    15    15    16    2
    16    15    17   am
    17    17    19    1
    18    19    20    2
    19    19    21    2
    20    19    22    1
    21    22    23    1
    22    23    24    1
    23    12    13    1
    24    13    14    1
    25    14    25    1
    26    25    26    1
    27    26    27    1
    28     3     4    1
    29     4     5   am
    30     5     6    2
    31     5    42    1
    32    42    49    1
    33    49    50   am
    34    50    51    2
    35    50    53    1
    36    53    54    1
    37    54    55    1
    38    54    56    1
    39    56    57    1
    40    56    58    1
    41    56    59    1
    42    42    43    1
    43    43    44    1
    44    44    45    1
    45    45    46    1
    46    46    47    1
    47    47    48    1
    48     4     7    1
    49    32    33   ar
    50    33    34   ar
    51    34    35   ar
    52    35    36    1
    53    35    37   ar
    54    37    38   ar
    55    38    39   ar
    56    39    29   ar
    57     7     1    1
    58    39    33   ar
    59    14    12    1
    60    27    25    1
    61    48    43    1
    62    24    22    1
    63    10    11    1
    64    17    18    1
    65    49    52    1
@<TRIPOS>MOLECULE
*****
 59 65 0 0 0
SMALL
GASTEIGER

@<TRIPOS>ATOM
      1 C           3.6662    1.9735   22.8893 C.3     1  UNL1        0.1894
      2 C           2.7860    2.4891   23.9890 C.3     1  UNL1        0.0746
      3 C           1.4738    2.8903   23.3829 C.3     1  UNL1        0.1555
      4 N           1.5432    2.6226   21.9085 N.am    1  UNL1       -0.2678
      5 C           0.4495    2.8768   20.9139 C.2     1  UNL1        0.2440
      6 O          -0.8596    3.4505   21.3689 O.2     1  UNL1       -0.2731
      7 C           2.8981    2.0559   21.6035 C.3     1  UNL1        0.1373
      8 C           0.2988    3.4593   24.1214 C.2     1  UNL1        0.2409
      9 O           0.3782    4.8366   24.7101 O.2     1  UNL1       -0.2733
     10 N          -0.9559    2.6509   24.2712 N.am    1  UNL1       -0.2985
     11 H          -1.0081    1.7469   23.8848 H       1  UNL1        0.1498
     12 C          -2.1310    3.2199   25.0097 C.3     1  UNL1        0.1271
     13 C          -3.0360    3.5906   26.1470 C.3     1  UNL1        0.0290
     14 C          -1.7614    2.8464   26.4146 C.3     1  UNL1        0.0270
     15 C          -2.9087    3.7910   23.8612 C.2     1  UNL1        0.2564
     16 O          -2.6273    5.1850   23.3842 O.2     1  UNL1       -0.2718
     17 N          -3.9679    2.9680   23.1896 N.am    1  UNL1       -0.1875
     18 H          -4.1526    2.0531   23.5027 H       1  UNL1        0.1762
     19 S          -4.7456    3.5391   22.0412 S.O2    1  UNL1        0.0543
     20 O          -3.8381    2.8350   21.0765 O.2     1  UNL1       -0.1545
     21 O          -5.6532    4.2433   23.0059 O.2     1  UNL1       -0.1545
     22 C          -5.5233    4.1102   20.8928 C.3     1  UNL1        0.1490
     23 C          -6.5751    3.9604   19.8339 C.3     1  UNL1        0.0273
     24 C          -5.8185    5.2493   19.9625 C.3     1  UNL1        0.0273
     25 C          -0.8120    2.2012   27.3803 C.3     1  UNL1        0.0021
     26 C           0.4062    2.2783   28.2520 C.3     1  UNL1        0.0001
     27 C          -0.3859    1.0064   28.1810 C.3     1  UNL1        0.0001
     28 O           5.0684    1.4647   23.0476 O.3     1  UNL1       -0.4621
     29 C           5.9028   -2.9497   22.7887 C.ar    1  UNL1        0.1579
     30 C           5.0397   -2.4130   23.8918 C.ar    1  UNL1        0.1388
     31 N           4.7615   -0.9415   23.9781 N.ar    1  UNL1       -0.2069
     32 C           5.3465   -0.0068   22.9613 C.ar    1  UNL1        0.2249
     33 C           6.2096   -0.5435   21.8580 C.ar    1  UNL1        0.0570
     34 C           6.7946    0.3913   20.8412 C.ar    1  UNL1        0.0161
     35 C           7.6577   -0.1454   19.7381 C.ar    1  UNL1        0.0578
     36 CL          8.2427    0.7893   18.7211 Cl      1  UNL1       -0.0822
     37 C           7.9359   -1.6169   19.6518 C.ar    1  UNL1        0.0115
     38 C           7.3509   -2.5517   20.6686 C.ar    1  UNL1        0.0041
     39 C           6.4878   -2.0149   21.7718 C.ar    1  UNL1        0.0401
     40 C           7.3004   -5.0209   23.5004 C.3     1  UNL1        0.2525
     41 O           6.1809   -4.4212   22.7024 O.3     1  UNL1       -0.4699
     42 C           0.6650    2.5574   19.4643 C.3     1  UNL1        0.1512
     43 C           0.5566    3.6415   18.4332 C.3     1  UNL1        0.0270
     44 C           1.5754    4.7416   18.3917 C.3     1  UNL1        0.0021
     45 C           1.4670    5.8257   17.3607 C.3     1  UNL1        0.0001
     46 C           0.3399    5.8097   16.3711 C.3     1  UNL1        0.0000
     47 C          -0.6789    4.7095   16.4126 C.3     1  UNL1        0.0001
     48 C          -0.5705    3.6254   17.4436 C.3     1  UNL1        0.0021
     49 N           0.9888    1.1539   19.0456 N.am    1  UNL1       -0.2640
     50 C           2.3216    0.8430   18.4316 C.2     1  UNL1        0.4021
     51 O           3.3305    1.9357   18.2361 O.2     1  UNL1       -0.2264
     52 H           0.3267    0.4367   19.1739 H       1  UNL1        0.1532
     53 O           2.6456   -0.5605   18.0129 O.3     1  UNL1       -0.4295
     54 C           3.4137   -1.4600   18.9353 C.3     1  UNL1        0.2645
     55 C           3.0693   -1.5084   20.3945 C.3     1  UNL1        0.0567
     56 C           4.5262   -2.3111   18.3986 C.3     1  UNL1        0.4342
     57 F           5.6386   -3.1621   17.8620 F       1  UNL1       -0.1664
     58 F           5.1365   -1.1041   17.7499 F       1  UNL1       -0.1664
     59 F           3.9157   -3.5179   19.0474 F       1  UNL1       -0.1664
@<TRIPOS>BOND
     1    40    41    1
     2    41    29    1
     3    29    30   ar
     4    30    31   ar
     5    31    32   ar
     6    32    28    1
     7     1    28    1
     8     1     2    1
     9     2     3    1
    10     3     8    1
    11     8     9    2
    12     8    10   am
    13    12    10    1
    14    12    15    1
    15    15    16    2
    16    15    17   am
    17    17    19    1
    18    19    20    2
    19    19    21    2
    20    19    22    1
    21    22    23    1
    22    23    24    1
    23    12    13    1
    24    13    14    1
    25    14    25    1
    26    25    26    1
    27    26    27    1
    28     3     4    1
    29     4     5   am
    30     5     6    2
    31     5    42    1
    32    42    49    1
    33    49    50   am
    34    50    51    2
    35    50    53    1
    36    53    54    1
    37    54    55    1
    38    54    56    1
    39    56    57    1
    40    56    58    1
    41    56    59    1
    42    42    43    1
    43    43    44    1
    44    44    45    1
    45    45    46    1
    46    46    47    1
    47    47    48    1
    48     4     7    1
    49    32    33   ar
    50    33    34   ar
    51    34    35   ar
    52    35    36    1
    53    35    37   ar
    54    37    38   ar
    55    38    39   ar
    56    39    29   ar
    57     7     1    1
    58    39    33   ar
    59    14    12    1
    60    27    25    1
    61    48    43    1
    62    24    22    1
    63    10    11    1
    64    17    18    1
    65    49    52    1
@<TRIPOS>MOLECULE
*****
 59 65 0 0 0
SMALL
GASTEIGER

@<TRIPOS>ATOM
      1 C           3.0546   -0.2783   23.2533 C.3     1  UNL1        0.1894
      2 C           2.6821    0.1614   24.6383 C.3     1  UNL1        0.0746
      3 C           1.5196    1.1028   24.5288 C.3     1  UNL1        0.1555
      4 N           1.1735    1.2450   23.0762 N.am    1  UNL1       -0.2678
      5 C           0.0720    2.0921   22.5111 C.2     1  UNL1        0.2440
      6 O          -0.8012    2.8964   23.4279 O.2     1  UNL1       -0.2731
      7 C           2.1222    0.3914   22.2879 C.3     1  UNL1        0.1373
      8 C           0.8250    1.7827   25.6713 C.2     1  UNL1        0.2409
      9 O          -0.1883    1.0342   26.4854 O.2     1  UNL1       -0.2733
     10 N           1.1437    3.2112   25.9997 N.am    1  UNL1       -0.2985
     11 H           1.8088    3.7025   25.4654 H       1  UNL1        0.1498
     12 C           0.4492    3.8911   27.1422 C.3     1  UNL1        0.1271
     13 C           0.1824    4.4000   28.5278 C.3     1  UNL1        0.0290
     14 C           1.4398    3.6348   28.2390 C.3     1  UNL1        0.0270
     15 C          -0.7828    4.3836   26.4422 C.2     1  UNL1        0.2564
     16 O          -0.6823    5.4956   25.4406 O.2     1  UNL1       -0.2718
     17 N          -2.1151    3.7639   26.7438 N.am    1  UNL1       -0.1875
     18 H          -2.1810    3.0340   27.4012 H       1  UNL1        0.1762
     19 S          -3.3469    4.2564   26.0438 S.O2    1  UNL1        0.0543
     20 O          -3.1689    3.2038   24.9901 O.2     1  UNL1       -0.1545
     21 O          -3.5249    5.3090   27.0977 O.2     1  UNL1       -0.1545
     22 C          -4.5788    4.7488   25.3439 C.3     1  UNL1        0.1490
     23 C          -5.2330    5.6794   24.3662 C.3     1  UNL1        0.0273
     24 C          -6.0583    4.6711   25.1092 C.3     1  UNL1        0.0273
     25 C           2.7378    3.0450   28.7054 C.3     1  UNL1        0.0021
     26 C           3.9508    3.1068   29.5855 C.3     1  UNL1        0.0001
     27 C           3.7728    1.9616   28.6331 C.3     1  UNL1        0.0001
     28 O           4.1645   -1.2220   22.8965 O.3     1  UNL1       -0.4621
     29 C           6.2824   -0.8138   18.9470 C.ar    1  UNL1        0.1579
     30 C           6.3577    0.2932   19.9563 C.ar    1  UNL1        0.1388
     31 N           5.6517    0.1572   21.2728 N.ar    1  UNL1       -0.2069
     32 C           4.8705   -1.0859   21.5800 C.ar    1  UNL1        0.2249
     33 C           4.7952   -2.1931   20.5707 C.ar    1  UNL1        0.0570
     34 C           4.0140   -3.4361   20.8778 C.ar    1  UNL1        0.0161
     35 C           3.9388   -4.5432   19.8685 C.ar    1  UNL1        0.0578
     36 CL          3.1576   -5.7864   20.1757 Cl      1  UNL1       -0.0822
     37 C           4.6448   -4.4071   18.5520 C.ar    1  UNL1        0.0115
     38 C           5.4260   -3.1640   18.2449 C.ar    1  UNL1        0.0041
     39 C           5.5012   -2.0570   19.2542 C.ar    1  UNL1        0.0401
     40 C           6.8893    0.6024   16.8552 C.3     1  UNL1        0.2525
     41 O           6.9884   -0.6778   17.6306 O.3     1  UNL1       -0.4699
     42 C          -0.1561    2.1349   21.0292 C.3     1  UNL1        0.1512
     43 C           0.9734    1.8389   20.0875 C.3     1  UNL1        0.0270
     44 C           1.0054    0.5390   19.3398 C.3     1  UNL1        0.0021
     45 C           2.1349    0.2430   18.3982 C.3     1  UNL1        0.0001
     46 C           3.2324    1.2469   18.2043 C.3     1  UNL1        0.0000
     47 C           3.2004    2.5469   18.9520 C.3     1  UNL1        0.0001
     48 C           2.0708    2.8429   19.8936 C.3     1  UNL1        0.0021
     49 N          -1.5138    2.4737   20.4889 N.am    1  UNL1       -0.2640
     50 C          -1.8470    3.8924   20.1336 C.2     1  UNL1        0.4021
     51 O          -0.8226    4.9723   20.3187 O.2     1  UNL1       -0.2264
     52 H          -2.1862    1.7649   20.3674 H       1  UNL1        0.1532
     53 O          -3.2047    4.2313   19.5933 O.3     1  UNL1       -0.4295
     54 C          -4.4311    3.6359   20.2190 C.3     1  UNL1        0.2645
     55 C          -4.4347    3.2871   21.6779 C.3     1  UNL1        0.0567
     56 C          -5.6538    3.3892   19.3858 C.3     1  UNL1        0.4342
     57 F          -6.8764    3.1426   18.5527 F       1  UNL1       -0.1664
     58 F          -4.7883    3.1725   18.1800 F       1  UNL1       -0.1664
     59 F          -6.5191    3.6060   20.5917 F       1  UNL1       -0.1664
@<TRIPOS>BOND
     1    40    41    1
     2    41    29    1
     3    29    30   ar
     4    30    31   ar
     5    31    32   ar
     6    32    28    1
     7     1    28    1
     8     1     2    1
     9     2     3    1
    10     3     8    1
    11     8     9    2
    12     8    10   am
    13    12    10    1
    14    12    15    1
    15    15    16    2
    16    15    17   am
    17    17    19    1
    18    19    20    2
    19    19    21    2
    20    19    22    1
    21    22    23    1
    22    23    24    1
    23    12    13    1
    24    13    14    1
    25    14    25    1
    26    25    26    1
    27    26    27    1
    28     3     4    1
    29     4     5   am
    30     5     6    2
    31     5    42    1
    32    42    49    1
    33    49    50   am
    34    50    51    2
    35    50    53    1
    36    53    54    1
    37    54    55    1
    38    54    56    1
    39    56    57    1
    40    56    58    1
    41    56    59    1
    42    42    43    1
    43    43    44    1
    44    44    45    1
    45    45    46    1
    46    46    47    1
    47    47    48    1
    48     4     7    1
    49    32    33   ar
    50    33    34   ar
    51    34    35   ar
    52    35    36    1
    53    35    37   ar
    54    37    38   ar
    55    38    39   ar
    56    39    29   ar
    57     7     1    1
    58    39    33   ar
    59    14    12    1
    60    27    25    1
    61    48    43    1
    62    24    22    1
    63    10    11    1
    64    17    18    1
    65    49    52    1
@<TRIPOS>MOLECULE
*****
 59 65 0 0 0
SMALL
GASTEIGER

@<TRIPOS>ATOM
      1 C           3.9136   -1.2989   24.3638 C.3     1  UNL1        0.1894
      2 C           3.8484   -0.6607   25.7197 C.3     1  UNL1        0.0746
      3 C           5.0391   -1.1218   26.5068 C.3     1  UNL1        0.1555
      4 N           5.8402   -2.0450   25.6373 N.am    1  UNL1       -0.2678
      5 C           7.1134   -2.7373   26.0244 C.2     1  UNL1        0.2440
      6 O           7.6936   -2.5307   27.3921 O.2     1  UNL1       -0.2731
      7 C           5.1446   -2.1544   24.3129 C.3     1  UNL1        0.1373
      8 C           5.3705   -0.7288   27.9160 C.2     1  UNL1        0.2409
      9 O           6.5513    0.1546   28.1902 O.2     1  UNL1       -0.2733
     10 N           4.5211   -1.2192   29.0509 N.am    1  UNL1       -0.2985
     11 H           3.7460   -1.7990   28.8709 H       1  UNL1        0.1498
     12 C           4.8525   -0.8261   30.4600 C.3     1  UNL1        0.1271
     13 C           5.4700   -0.8663   31.8264 C.3     1  UNL1        0.0290
     14 C           5.7913   -1.9371   30.8264 C.3     1  UNL1        0.0270
     15 C           4.0288    0.4215   30.5831 C.2     1  UNL1        0.2564
     16 O           4.3603    1.6242   29.7503 O.2     1  UNL1       -0.2718
     17 N           2.8735    0.4662   31.5388 N.am    1  UNL1       -0.1875
     18 H           2.6560   -0.3232   32.0854 H       1  UNL1        0.1762
     19 S           2.0499    1.7137   31.6619 S.O2    1  UNL1        0.0543
     20 O           3.0204    2.2552   32.6692 O.2     1  UNL1       -0.1545
     21 O           1.0793    1.1722   30.6544 O.2     1  UNL1       -0.1545
     22 C           1.2262    2.9613   31.7849 C.3     1  UNL1        0.1490
     23 C           0.1592    3.7496   32.4847 C.3     1  UNL1        0.0273
     24 C           0.8666    4.3338   31.2980 C.3     1  UNL1        0.0273
     25 C           6.5188   -3.1969   30.4604 C.3     1  UNL1        0.0021
     26 C           6.5358   -4.5398   29.7926 C.3     1  UNL1        0.0001
     27 C           7.7619   -4.0357   30.4945 C.3     1  UNL1        0.0001
     28 O           2.9219   -1.1140   23.2537 O.3     1  UNL1       -0.4621
     29 C           3.9215    1.5446   19.7633 C.ar    1  UNL1        0.1579
     30 C           3.7030    2.1412   21.1221 C.ar    1  UNL1        0.1388
     31 N           3.3698    1.2550   22.2856 N.ar    1  UNL1       -0.2069
     32 C           3.2551   -0.2278   22.0902 C.ar    1  UNL1        0.2249
     33 C           3.4736   -0.8244   20.7314 C.ar    1  UNL1        0.0570
     34 C           3.3589   -2.3072   20.5361 C.ar    1  UNL1        0.0161
     35 C           3.5774   -2.9037   19.1773 C.ar    1  UNL1        0.0578
     36 CL          3.4628   -4.3866   18.9820 Cl      1  UNL1       -0.0822
     37 C           3.9106   -2.0175   18.0139 C.ar    1  UNL1        0.0115
     38 C           4.0253   -0.5348   18.2092 C.ar    1  UNL1        0.0041
     39 C           3.8068    0.0618   19.5679 C.ar    1  UNL1        0.0401
     40 C           5.6762    2.8402   18.3518 C.3     1  UNL1        0.2525
     41 O           4.2547    2.4308   18.5999 O.3     1  UNL1       -0.4699
     42 C           7.8065   -3.6361   25.0436 C.3     1  UNL1        0.1512
     43 C           7.9286   -5.1038   25.3280 C.3     1  UNL1        0.0270
     44 C           9.0648   -5.8891   24.7429 C.3     1  UNL1        0.0021
     45 C           9.1870   -7.3568   25.0272 C.3     1  UNL1        0.0001
     46 C           8.1729   -8.0393   25.8966 C.3     1  UNL1        0.0000
     47 C           7.0367   -7.2541   26.4817 C.3     1  UNL1        0.0001
     48 C           6.9145   -5.7863   26.1974 C.3     1  UNL1        0.0021
     49 N           8.3774   -3.0671   23.7786 N.am    1  UNL1       -0.2640
     50 C           7.8467   -3.5142   22.4488 C.2     1  UNL1        0.4021
     51 O           6.7451   -4.5302   22.3840 O.2     1  UNL1       -0.2264
     52 H           9.1004   -2.4003   23.8211 H       1  UNL1        0.1532
     53 O           8.4175   -2.9453   21.1837 O.3     1  UNL1       -0.4295
     54 C           7.6393   -1.9307   20.3994 C.3     1  UNL1        0.2645
     55 C           7.1605   -0.6747   21.0651 C.3     1  UNL1        0.0567
     56 C           7.3400   -2.1721   18.9495 C.3     1  UNL1        0.4342
     57 F           7.0408   -2.4135   17.4997 F       1  UNL1       -0.1664
     58 F           7.9782   -0.8605   18.5994 F       1  UNL1       -0.1664
     59 F           6.7019   -3.4837   19.2998 F       1  UNL1       -0.1664
@<TRIPOS>BOND
     1    40    41    1
     2    41    29    1
     3    29    30   ar
     4    30    31   ar
     5    31    32   ar
     6    32    28    1
     7     1    28    1
     8     1     2    1
     9     2     3    1
    10     3     8    1
    11     8     9    2
    12     8    10   am
    13    12    10    1
    14    12    15    1
    15    15    16    2
    16    15    17   am
    17    17    19    1
    18    19    20    2
    19    19    21    2
    20    19    22    1
    21    22    23    1
    22    23    24    1
    23    12    13    1
    24    13    14    1
    25    14    25    1
    26    25    26    1
    27    26    27    1
    28     3     4    1
    29     4     5   am
    30     5     6    2
    31     5    42    1
    32    42    49    1
    33    49    50   am
    34    50    51    2
    35    50    53    1
    36    53    54    1
    37    54    55    1
    38    54    56    1
    39    56    57    1
    40    56    58    1
    41    56    59    1
    42    42    43    1
    43    43    44    1
    44    44    45    1
    45    45    46    1
    46    46    47    1
    47    47    48    1
    48     4     7    1
    49    32    33   ar
    50    33    34   ar
    51    34    35   ar
    52    35    36    1
    53    35    37   ar
    54    37    38   ar
    55    38    39   ar
    56    39    29   ar
    57     7     1    1
    58    39    33   ar
    59    14    12    1
    60    27    25    1
    61    48    43    1
    62    24    22    1
    63    10    11    1
    64    17    18    1
    65    49    52    1
