@<TRIPOS>MOLECULE
*****
 29 32 0 0 0
SMALL
GASTEIGER

@<TRIPOS>ATOM
      1 C          -8.0327  -15.8417   23.0688 C.2     1  UNL1        0.2651
      2 O          -7.3779  -15.1349   21.9193 O.2     1  UNL1       -0.2684
      3 N          -7.2835  -16.0381   24.3534 N.am    1  UNL1       -0.2996
      4 H          -7.7132  -16.5021   25.1079 H       1  UNL1        0.1498
      5 C         -11.5529  -17.4406   23.4107 C.ar    1  UNL1        0.1239
      6 N         -10.1903  -17.1421   23.9624 N.ar    1  UNL1       -0.2260
      7 C          -9.4367  -16.3523   22.9338 C.ar    1  UNL1        0.1517
      8 C         -10.3334  -16.1625   21.7464 C.ar    1  UNL1        0.0872
      9 C         -10.1280  -15.4642   20.4349 C.ar    1  UNL1        0.0193
     10 C         -11.2305  -15.4385   19.4182 C.ar    1  UNL1        0.0031
     11 C         -12.5384  -16.1111   19.7129 C.ar    1  UNL1        0.0191
     12 C         -12.7439  -16.8094   21.0244 C.ar    1  UNL1        0.0811
     13 N         -11.6414  -16.8351   22.0412 N.ar    1  UNL1       -0.2921
     14 C         -14.0766  -17.8775   23.8473 C.3     1  UNL1        0.0079
     15 C         -12.6368  -18.2094   24.1064 C.3     1  UNL1        0.0573
     16 C         -12.2811  -19.3101   25.0613 C.3     1  UNL1        0.0079
     17 C          -5.8795  -15.5276   24.4884 C.3     1  UNL1        0.0898
     18 C          -4.7689  -16.1738   23.7145 C.3     1  UNL1        0.0224
     19 C          -3.5742  -16.0583   22.8150 C.3     1  UNL1        0.0191
     20 C          -2.3739  -16.2557   21.9372 C.3     1  UNL1        0.0722
     21 N          -2.0980  -17.7277   21.8533 N.3     1  UNL1       -0.2707
     22 C          -3.1276  -18.4401   22.6793 C.3     1  UNL1        0.0722
     23 C          -4.0400  -17.4084   23.2736 C.3     1  UNL1        0.0191
     24 C          -0.9873  -18.3738   21.0794 C.3     1  UNL1        0.0993
     25 C          -0.8207  -18.0784   19.6183 C.3     1  UNL1        0.1031
     26 C          -2.1501  -18.7141   19.3381 C.3     1  UNL1        0.0307
     27 C           0.5087  -17.4426   19.8984 C.3     1  UNL1        0.0307
     28 O          -0.6541  -17.7829   18.1571 O.3     1  UNL1       -0.3854
     29 H          -1.4287  -18.1068   17.6714 H       1  UNL1        0.2103
@<TRIPOS>BOND
     1    14    15    1
     2    15    16    1
     3    15     5    1
     4     5     6   ar
     5     6     7   ar
     6     7     1    1
     7     1     2    2
     8     1     3   am
     9     3    17    1
    10    18    17    1
    11    18    19    1
    12    19    20    1
    13    20    21    1
    14    21    24    1
    15    24    25    1
    16    25    26    1
    17    25    27    1
    18    25    28    1
    19    21    22    1
    20    23    22    1
    21     7     8   ar
    22     8     9   ar
    23     9    10   ar
    24    10    11   ar
    25    11    12   ar
    26    12    13   ar
    27    13     5   ar
    28    23    18    1
    29    13     8   ar
    30    23    19    1
    31     3     4    1
    32    28    29    1
@<TRIPOS>MOLECULE
*****
 29 32 0 0 0
SMALL
GASTEIGER

@<TRIPOS>ATOM
      1 C          -7.6809  -16.8847   23.0515 C.2     1  UNL1        0.2651
      2 O          -6.7887  -18.0367   22.6954 O.2     1  UNL1       -0.2684
      3 N          -7.2004  -15.8306   24.0044 N.am    1  UNL1       -0.2996
      4 H          -7.7859  -15.0745   24.2382 H       1  UNL1        0.1498
      5 C         -10.8873  -16.2459   20.9595 C.ar    1  UNL1        0.1239
      6 N          -9.4096  -16.0980   21.1706 N.ar    1  UNL1       -0.2260
      7 C          -9.0536  -16.7867   22.4546 C.ar    1  UNL1        0.1517
      8 C         -10.3112  -17.3603   23.0372 C.ar    1  UNL1        0.0872
      9 C         -10.5709  -18.1437   24.2897 C.ar    1  UNL1        0.0193
     10 C         -11.9638  -18.5929   24.6181 C.ar    1  UNL1        0.0031
     11 C         -13.0971  -18.2587   23.6940 C.ar    1  UNL1        0.0191
     12 C         -12.8375  -17.4752   22.4415 C.ar    1  UNL1        0.0811
     13 N         -11.4445  -17.0260   22.1131 N.ar    1  UNL1       -0.2921
     14 C         -13.1636  -15.8479   19.7719 C.3     1  UNL1        0.0079
     15 C         -11.6703  -15.7081   19.7986 C.3     1  UNL1        0.0573
     16 C         -10.9602  -15.0305   18.6644 C.3     1  UNL1        0.0079
     17 C          -5.8277  -15.9286   24.6012 C.3     1  UNL1        0.0898
     18 C          -4.6998  -16.5042   23.7973 C.3     1  UNL1        0.0224
     19 C          -3.5237  -16.3123   22.8864 C.3     1  UNL1        0.0191
     20 C          -2.3277  -16.4331   21.9890 C.3     1  UNL1        0.0722
     21 N          -1.9872  -17.8886   21.8638 N.3     1  UNL1       -0.2707
     22 C          -2.9727  -18.6673   22.6838 C.3     1  UNL1        0.0722
     23 C          -3.9223  -17.6932   23.3157 C.3     1  UNL1        0.0191
     24 C          -0.8593  -18.4642   21.0598 C.3     1  UNL1        0.0993
     25 C          -0.7265  -18.1257   19.6046 C.3     1  UNL1        0.1031
     26 C          -2.0646  -18.7488   19.3376 C.3     1  UNL1        0.0307
     27 C           0.6116  -17.5026   19.8716 C.3     1  UNL1        0.0307
     28 O          -0.5937  -17.7873   18.1493 O.3     1  UNL1       -0.3854
     29 H          -1.3809  -18.0942   17.6729 H       1  UNL1        0.2103
@<TRIPOS>BOND
     1    14    15    1
     2    15    16    1
     3    15     5    1
     4     5     6   ar
     5     6     7   ar
     6     7     1    1
     7     1     2    2
     8     1     3   am
     9     3    17    1
    10    18    17    1
    11    18    19    1
    12    19    20    1
    13    20    21    1
    14    21    24    1
    15    24    25    1
    16    25    26    1
    17    25    27    1
    18    25    28    1
    19    21    22    1
    20    23    22    1
    21     7     8   ar
    22     8     9   ar
    23     9    10   ar
    24    10    11   ar
    25    11    12   ar
    26    12    13   ar
    27    13     5   ar
    28    23    18    1
    29    13     8   ar
    30    23    19    1
    31     3     4    1
    32    28    29    1
@<TRIPOS>MOLECULE
*****
 29 32 0 0 0
SMALL
GASTEIGER

@<TRIPOS>ATOM
      1 C          -9.4202  -20.0618   23.5570 C.2     1  UNL1        0.2651
      2 O          -9.1382  -21.0941   24.6081 O.2     1  UNL1       -0.2684
      3 N          -8.3875  -19.7519   22.5141 N.am    1  UNL1       -0.2996
      4 H          -8.5725  -19.0744   21.8242 H       1  UNL1        0.1498
      5 C         -12.9705  -18.6082   24.1462 C.ar    1  UNL1        0.1239
      6 N         -11.8518  -19.5302   24.5315 N.ar    1  UNL1       -0.2260
      7 C         -10.7348  -19.3395   23.5487 C.ar    1  UNL1        0.1517
      8 C         -11.1632  -18.2997   22.5560 C.ar    1  UNL1        0.0872
      9 C         -10.4735  -17.7061   21.3635 C.ar    1  UNL1        0.0193
     10 C         -11.1657  -16.6605   20.5404 C.ar    1  UNL1        0.0031
     11 C         -12.5475  -16.2085   20.9098 C.ar    1  UNL1        0.0191
     12 C         -13.2371  -16.8021   22.1022 C.ar    1  UNL1        0.0811
     13 N         -12.5449  -17.8477   22.9253 N.ar    1  UNL1       -0.2921
     14 C         -15.5662  -18.5175   24.0795 C.3     1  UNL1        0.0079
     15 C         -14.2842  -18.4708   24.8571 C.3     1  UNL1        0.0573
     16 C         -14.3161  -18.2866   26.3453 C.3     1  UNL1        0.0079
     17 C          -7.0729  -20.4742   22.5224 C.3     1  UNL1        0.0898
     18 C          -5.8258  -19.7668   22.0817 C.3     1  UNL1        0.0224
     19 C          -4.7483  -18.7543   22.3345 C.3     1  UNL1        0.0191
     20 C          -3.5638  -17.8344   22.3074 C.3     1  UNL1        0.0722
     21 N          -2.8265  -18.0656   21.0218 N.3     1  UNL1       -0.2707
     22 C          -3.5553  -19.1285   20.2542 C.3     1  UNL1        0.0722
     23 C          -4.7431  -19.5541   21.0655 C.3     1  UNL1        0.0191
     24 C          -1.5794  -17.3582   20.5811 C.3     1  UNL1        0.0993
     25 C          -1.0281  -17.5963   19.2065 C.3     1  UNL1        0.1031
     26 C           0.2676  -18.0567   19.8060 C.3     1  UNL1        0.0307
     27 C          -2.3237  -17.1358   18.6071 C.3     1  UNL1        0.0307
     28 O          -0.4767  -17.8343   17.8320 O.3     1  UNL1       -0.3854
     29 H           0.4321  -18.1663   17.9012 H       1  UNL1        0.2103
@<TRIPOS>BOND
     1    14    15    1
     2    15    16    1
     3    15     5    1
     4     5     6   ar
     5     6     7   ar
     6     7     1    1
     7     1     2    2
     8     1     3   am
     9     3    17    1
    10    18    17    1
    11    18    19    1
    12    19    20    1
    13    20    21    1
    14    21    24    1
    15    24    25    1
    16    25    26    1
    17    25    27    1
    18    25    28    1
    19    21    22    1
    20    23    22    1
    21     7     8   ar
    22     8     9   ar
    23     9    10   ar
    24    10    11   ar
    25    11    12   ar
    26    12    13   ar
    27    13     5   ar
    28    23    18    1
    29    13     8   ar
    30    23    19    1
    31     3     4    1
    32    28    29    1
@<TRIPOS>MOLECULE
*****
 29 32 0 0 0
SMALL
GASTEIGER

@<TRIPOS>ATOM
      1 C          -6.2383  -19.7401   20.1562 C.2     1  UNL1        0.2651
      2 O          -6.6153  -20.9065   21.0206 O.2     1  UNL1       -0.2684
      3 N          -7.2303  -19.1769   19.1821 N.am    1  UNL1       -0.2996
      4 H          -6.9829  -18.4113   18.6147 H       1  UNL1        0.1498
      5 C          -2.6467  -18.3393   19.7054 C.ar    1  UNL1        0.1239
      6 N          -3.8768  -18.9940   19.1503 N.ar    1  UNL1       -0.2260
      7 C          -4.8693  -19.1368   20.2659 C.ar    1  UNL1        0.1517
      8 C          -4.2526  -18.5704   21.5104 C.ar    1  UNL1        0.0872
      9 C          -4.7644  -18.4397   22.9143 C.ar    1  UNL1        0.0193
     10 C          -3.9026  -17.8162   23.9718 C.ar    1  UNL1        0.0031
     11 C          -2.5288  -17.3233   23.6254 C.ar    1  UNL1        0.0191
     12 C          -2.0170  -17.4540   22.2215 C.ar    1  UNL1        0.0811
     13 N          -2.8789  -18.0775   21.1640 N.ar    1  UNL1       -0.2921
     14 C          -1.4919  -17.6545   17.4810 C.3     1  UNL1        0.0079
     15 C          -1.4026  -18.0051   18.9368 C.3     1  UNL1        0.0573
     16 C          -0.0694  -18.0216   19.6239 C.3     1  UNL1        0.0079
     17 C          -8.5992  -19.7802   19.0724 C.3     1  UNL1        0.0898
     18 C          -9.6952  -19.3246   19.9895 C.3     1  UNL1        0.0224
     19 C         -10.5446  -19.5413   21.2067 C.3     1  UNL1        0.0191
     20 C         -11.5253  -19.4858   22.3404 C.3     1  UNL1        0.0722
     21 N         -12.3310  -18.2289   22.1952 N.3     1  UNL1       -0.2707
     22 C         -11.8482  -17.5076   20.9718 C.3     1  UNL1        0.0722
     23 C         -10.7442  -18.3187   20.3609 C.3     1  UNL1        0.0191
     24 C         -13.4270  -17.7733   23.1124 C.3     1  UNL1        0.0993
     25 C         -13.5369  -18.3486   24.4933 C.3     1  UNL1        0.1031
     26 C         -15.0308  -18.3788   24.3618 C.3     1  UNL1        0.0307
     27 C         -12.0430  -18.3184   24.6248 C.3     1  UNL1        0.0307
     28 O         -13.6468  -18.9239   25.8742 O.3     1  UNL1       -0.3854
     29 H         -14.5813  -19.0663   26.0917 H       1  UNL1        0.2103
@<TRIPOS>BOND
     1    14    15    1
     2    15    16    1
     3    15     5    1
     4     5     6   ar
     5     6     7   ar
     6     7     1    1
     7     1     2    2
     8     1     3   am
     9     3    17    1
    10    18    17    1
    11    18    19    1
    12    19    20    1
    13    20    21    1
    14    21    24    1
    15    24    25    1
    16    25    26    1
    17    25    27    1
    18    25    28    1
    19    21    22    1
    20    23    22    1
    21     7     8   ar
    22     8     9   ar
    23     9    10   ar
    24    10    11   ar
    25    11    12   ar
    26    12    13   ar
    27    13     5   ar
    28    23    18    1
    29    13     8   ar
    30    23    19    1
    31     3     4    1
    32    28    29    1
@<TRIPOS>MOLECULE
*****
 29 32 0 0 0
SMALL
GASTEIGER

@<TRIPOS>ATOM
      1 C           6.3874   -2.8983   26.6603 C.2     1  UNL1        0.2651
      2 O           7.2853   -2.1620   25.7109 O.2     1  UNL1       -0.2684
      3 N           4.9569   -2.4758   26.8200 N.am    1  UNL1       -0.2996
      4 H           4.3675   -2.9590   27.4431 H       1  UNL1        0.1498
      5 C           7.6698   -5.4418   29.2968 C.ar    1  UNL1        0.1239
      6 N           7.1209   -4.0933   28.9361 N.ar    1  UNL1       -0.2260
      7 C           6.9197   -4.0572   27.4501 C.ar    1  UNL1        0.1517
      8 C           7.3443   -5.3834   26.8924 C.ar    1  UNL1        0.0872
      9 C           7.3686   -5.9223   25.4928 C.ar    1  UNL1        0.0193
     10 C           7.8565   -7.3170   25.2346 C.ar    1  UNL1        0.0031
     11 C           8.3202   -8.1727   26.3759 C.ar    1  UNL1        0.0191
     12 C           8.2958   -7.6338   27.7755 C.ar    1  UNL1        0.0811
     13 N           7.8079   -6.2392   28.0338 N.ar    1  UNL1       -0.2921
     14 C           9.4004   -6.4180   30.9709 C.3     1  UNL1        0.0079
     15 C           8.0194   -5.9108   30.6781 C.3     1  UNL1        0.0573
     16 C           6.9881   -5.8726   31.7665 C.3     1  UNL1        0.0079
     17 C           4.4246   -1.3169   26.0303 C.3     1  UNL1        0.0898
     18 C           4.1306   -1.4777   24.5682 C.3     1  UNL1        0.0224
     19 C           3.4030   -1.0356   23.3332 C.3     1  UNL1        0.0191
     20 C           2.8311   -0.8292   21.9619 C.3     1  UNL1        0.0722
     21 N           3.4235   -1.8642   21.0521 N.3     1  UNL1       -0.2707
     22 C           4.3615   -2.7102   21.8609 C.3     1  UNL1        0.0722
     23 C           4.3489   -2.1981   23.2708 C.3     1  UNL1        0.0191
     24 C           3.1294   -2.0248   19.5900 C.3     1  UNL1        0.0993
     25 C           4.1753   -2.5840   18.6716 C.3     1  UNL1        0.1031
     26 C           3.6076   -3.9592   18.8624 C.3     1  UNL1        0.0307
     27 C           4.7430   -1.2088   18.4809 C.3     1  UNL1        0.0307
     28 O           5.2212   -3.1431   17.7533 O.3     1  UNL1       -0.3854
     29 H           5.1005   -4.1021   17.6716 H       1  UNL1        0.2103
@<TRIPOS>BOND
     1    14    15    1
     2    15    16    1
     3    15     5    1
     4     5     6   ar
     5     6     7   ar
     6     7     1    1
     7     1     2    2
     8     1     3   am
     9     3    17    1
    10    18    17    1
    11    18    19    1
    12    19    20    1
    13    20    21    1
    14    21    24    1
    15    24    25    1
    16    25    26    1
    17    25    27    1
    18    25    28    1
    19    21    22    1
    20    23    22    1
    21     7     8   ar
    22     8     9   ar
    23     9    10   ar
    24    10    11   ar
    25    11    12   ar
    26    12    13   ar
    27    13     5   ar
    28    23    18    1
    29    13     8   ar
    30    23    19    1
    31     3     4    1
    32    28    29    1
@<TRIPOS>MOLECULE
*****
 29 32 0 0 0
SMALL
GASTEIGER

@<TRIPOS>ATOM
      1 C           0.6021    2.1093   22.6165 C.2     1  UNL1        0.2651
      2 O           1.9852    2.6153   22.3320 O.2     1  UNL1       -0.2684
      3 N          -0.2570    1.6040   21.4955 N.am    1  UNL1       -0.2996
      4 H          -1.1648    1.2719   21.6822 H       1  UNL1        0.1498
      5 C          -0.1927    1.6222   26.3843 C.ar    1  UNL1        0.1239
      6 N           0.6369    1.3229   25.1710 N.ar    1  UNL1       -0.2260
      7 C           0.0780    2.1086   24.0220 C.ar    1  UNL1        0.1517
      8 C          -1.0969    2.8936   24.5252 C.ar    1  UNL1        0.0872
      9 C          -2.0361    3.8433   23.8426 C.ar    1  UNL1        0.0193
     10 C          -3.1426    4.4924   24.6199 C.ar    1  UNL1        0.0031
     11 C          -3.3099    4.1918   26.0799 C.ar    1  UNL1        0.0191
     12 C          -2.3707    3.2421   26.7626 C.ar    1  UNL1        0.0811
     13 N          -1.2643    2.5930   25.9852 N.ar    1  UNL1       -0.2921
     14 C          -0.9841    0.0848   28.3235 C.3     1  UNL1        0.0079
     15 C           0.0131    1.0511   27.7560 C.3     1  UNL1        0.0573
     16 C           1.2160    1.4462   28.5602 C.3     1  UNL1        0.0079
     17 C           0.2671    1.6047   20.0900 C.3     1  UNL1        0.0898
     18 C           1.3068    0.6055   19.6769 C.3     1  UNL1        0.0224
     19 C           2.3598    0.1508   18.7102 C.3     1  UNL1        0.0191
     20 C           3.4430   -0.5457   17.9409 C.3     1  UNL1        0.0722
     21 N           3.8073   -1.7972   18.6832 N.3     1  UNL1       -0.2707
     22 C           2.9494   -1.8742   19.9112 C.3     1  UNL1        0.0722
     23 C           2.0548   -0.6702   19.9279 C.3     1  UNL1        0.0191
     24 C           4.8470   -2.7963   18.2700 C.3     1  UNL1        0.0993
     25 C           5.4520   -3.7146   19.2901 C.3     1  UNL1        0.1031
     26 C           6.3460   -2.6051   19.7588 C.3     1  UNL1        0.0307
     27 C           4.5580   -4.8241   18.8214 C.3     1  UNL1        0.0307
     28 O           6.0569   -4.6329   20.3102 O.3     1  UNL1       -0.3854
     29 H           6.7324   -4.1544   20.8159 H       1  UNL1        0.2103
@<TRIPOS>BOND
     1    14    15    1
     2    15    16    1
     3    15     5    1
     4     5     6   ar
     5     6     7   ar
     6     7     1    1
     7     1     2    2
     8     1     3   am
     9     3    17    1
    10    18    17    1
    11    18    19    1
    12    19    20    1
    13    20    21    1
    14    21    24    1
    15    24    25    1
    16    25    26    1
    17    25    27    1
    18    25    28    1
    19    21    22    1
    20    23    22    1
    21     7     8   ar
    22     8     9   ar
    23     9    10   ar
    24    10    11   ar
    25    11    12   ar
    26    12    13   ar
    27    13     5   ar
    28    23    18    1
    29    13     8   ar
    30    23    19    1
    31     3     4    1
    32    28    29    1
@<TRIPOS>MOLECULE
*****
 29 32 0 0 0
SMALL
GASTEIGER

@<TRIPOS>ATOM
      1 C           6.7782   -4.2014   24.3871 C.2     1  UNL1        0.2651
      2 O           8.2491   -4.4070   24.1769 O.2     1  UNL1       -0.2684
      3 N           6.1732   -4.4409   25.7387 N.am    1  UNL1       -0.2996
      4 H           5.2078   -4.3060   25.8768 H       1  UNL1        0.1498
      5 C           4.8912   -3.5933   21.0503 C.ar    1  UNL1        0.1239
      6 N           5.9071   -4.3391   21.8638 N.ar    1  UNL1       -0.2260
      7 C           5.9124   -3.7563   23.2460 C.ar    1  UNL1        0.1517
      8 C           4.8999   -2.6504   23.2867 C.ar    1  UNL1        0.0872
      9 C           4.4711   -1.7220   24.3841 C.ar    1  UNL1        0.0193
     10 C           3.4112   -0.6929   24.1244 C.ar    1  UNL1        0.0031
     11 C           2.7800   -0.5922   22.7674 C.ar    1  UNL1        0.0191
     12 C           3.2088   -1.5205   21.6700 C.ar    1  UNL1        0.0811
     13 N           4.2688   -2.5496   21.9296 N.ar    1  UNL1       -0.2921
     14 C           3.4054   -4.7399   19.2536 C.3     1  UNL1        0.0079
     15 C           4.5566   -3.8466   19.6102 C.3     1  UNL1        0.0573
     16 C           5.3730   -3.2069   18.5267 C.3     1  UNL1        0.0079
     17 C           7.0390   -4.8859   26.8799 C.3     1  UNL1        0.0898
     18 C           6.8690   -4.2675   28.2358 C.3     1  UNL1        0.0224
     19 C           6.4787   -3.0983   29.0906 C.3     1  UNL1        0.0191
     20 C           6.1668   -2.1185   30.1827 C.3     1  UNL1        0.0722
     21 N           6.4600   -2.7801   31.4966 N.3     1  UNL1       -0.2707
     22 C           6.9531   -4.1687   31.2166 C.3     1  UNL1        0.0722
     23 C           6.9647   -4.3654   29.7295 C.3     1  UNL1        0.0191
     24 C           6.2900   -2.1615   32.8525 C.3     1  UNL1        0.0993
     25 C           5.0004   -1.4847   33.2117 C.3     1  UNL1        0.1031
     26 C           4.3221   -2.8201   33.2925 C.3     1  UNL1        0.0307
     27 C           5.6788   -0.1493   33.1309 C.3     1  UNL1        0.0307
     28 O           3.7109   -0.8079   33.5709 O.3     1  UNL1       -0.3854
     29 H           3.0194   -1.4762   33.6976 H       1  UNL1        0.2103
@<TRIPOS>BOND
     1    14    15    1
     2    15    16    1
     3    15     5    1
     4     5     6   ar
     5     6     7   ar
     6     7     1    1
     7     1     2    2
     8     1     3   am
     9     3    17    1
    10    18    17    1
    11    18    19    1
    12    19    20    1
    13    20    21    1
    14    21    24    1
    15    24    25    1
    16    25    26    1
    17    25    27    1
    18    25    28    1
    19    21    22    1
    20    23    22    1
    21     7     8   ar
    22     8     9   ar
    23     9    10   ar
    24    10    11   ar
    25    11    12   ar
    26    12    13   ar
    27    13     5   ar
    28    23    18    1
    29    13     8   ar
    30    23    19    1
    31     3     4    1
    32    28    29    1
@<TRIPOS>MOLECULE
*****
 29 32 0 0 0
SMALL
GASTEIGER

@<TRIPOS>ATOM
      1 C           5.6425   -1.9747   26.7234 C.2     1  UNL1        0.2651
      2 O           6.5110   -0.8471   26.2502 O.2     1  UNL1       -0.2684
      3 N           4.2256   -2.0827   26.2427 N.am    1  UNL1       -0.2996
      4 H           3.6555   -2.8227   26.5533 H       1  UNL1        0.1498
      5 C           6.9001   -4.0986   29.7188 C.ar    1  UNL1        0.1239
      6 N           6.2961   -2.8419   29.1659 N.ar    1  UNL1       -0.2260
      7 C           6.1906   -2.9942   27.6774 C.ar    1  UNL1        0.1517
      8 C           6.7293   -4.3451   27.3103 C.ar    1  UNL1        0.0872
      9 C           6.8772   -5.0419   25.9903 C.ar    1  UNL1        0.0193
     10 C           7.4637   -6.4212   25.9319 C.ar    1  UNL1        0.0031
     11 C           7.9022   -7.1038   27.1935 C.ar    1  UNL1        0.0191
     12 C           7.7543   -6.4071   28.5136 C.ar    1  UNL1        0.0811
     13 N           7.1679   -5.0277   28.5720 N.ar    1  UNL1       -0.2921
     14 C           7.7034   -3.2836   32.0514 C.3     1  UNL1        0.0079
     15 C           7.1862   -4.3774   31.1646 C.3     1  UNL1        0.0573
     16 C           6.9551   -5.7499   31.7238 C.3     1  UNL1        0.0079
     17 C           3.6775   -1.0631   25.2887 C.3     1  UNL1        0.0898
     18 C           3.6695   -1.3430   23.8151 C.3     1  UNL1        0.0224
     19 C           3.1855   -1.0162   22.4335 C.3     1  UNL1        0.0191
     20 C           2.8830   -0.9307   20.9667 C.3     1  UNL1        0.0722
     21 N           3.6502   -2.0159   20.2712 N.3     1  UNL1       -0.2707
     22 C           4.4268   -2.7721   21.3080 C.3     1  UNL1        0.0722
     23 C           4.1396   -2.1543   22.6443 C.3     1  UNL1        0.0191
     24 C           3.6421   -2.2957   18.7975 C.3     1  UNL1        0.0993
     25 C           4.6227   -1.6041   17.8975 C.3     1  UNL1        0.1031
     26 C           3.6062   -0.5398   17.6077 C.3     1  UNL1        0.0307
     27 C           5.6392   -2.6684   18.1873 C.3     1  UNL1        0.0307
     28 O           5.6034   -0.9126   16.9974 O.3     1  UNL1       -0.3854
     29 H           5.1950   -0.1146   16.6267 H       1  UNL1        0.2103
@<TRIPOS>BOND
     1    14    15    1
     2    15    16    1
     3    15     5    1
     4     5     6   ar
     5     6     7   ar
     6     7     1    1
     7     1     2    2
     8     1     3   am
     9     3    17    1
    10    18    17    1
    11    18    19    1
    12    19    20    1
    13    20    21    1
    14    21    24    1
    15    24    25    1
    16    25    26    1
    17    25    27    1
    18    25    28    1
    19    21    22    1
    20    23    22    1
    21     7     8   ar
    22     8     9   ar
    23     9    10   ar
    24    10    11   ar
    25    11    12   ar
    26    12    13   ar
    27    13     5   ar
    28    23    18    1
    29    13     8   ar
    30    23    19    1
    31     3     4    1
    32    28    29    1
@<TRIPOS>MOLECULE
*****
 29 32 0 0 0
SMALL
GASTEIGER

@<TRIPOS>ATOM
      1 C           4.7063   -3.2509   22.2258 C.2     1  UNL1        0.2651
      2 O           4.5500   -4.6065   21.6030 O.2     1  UNL1       -0.2684
      3 N           5.6350   -3.0624   23.3886 N.am    1  UNL1       -0.2996
      4 H           5.7376   -2.1727   23.7974 H       1  UNL1        0.1498
      5 C           2.4899   -0.1384   21.5441 C.ar    1  UNL1        0.1239
      6 N           3.0664   -1.1558   22.4835 N.ar    1  UNL1       -0.2260
      7 C           3.9339   -2.0839   21.6859 C.ar    1  UNL1        0.1517
      8 C           3.8935   -1.6400   20.2536 C.ar    1  UNL1        0.0872
      9 C           4.5541   -2.1754   19.0180 C.ar    1  UNL1        0.0193
     10 C           4.3222   -1.5083   17.6946 C.ar    1  UNL1        0.0031
     11 C           3.4297   -0.3059   17.6070 C.ar    1  UNL1        0.0191
     12 C           2.7691    0.2294   18.8427 C.ar    1  UNL1        0.0811
     13 N           3.0010   -0.4376   20.1660 N.ar    1  UNL1       -0.2921
     14 C           0.2612    1.1504   21.1941 C.3     1  UNL1        0.0079
     15 C           1.5646    0.9817   21.9173 C.3     1  UNL1        0.0573
     16 C           1.9425    1.9331   23.0136 C.3     1  UNL1        0.0079
     17 C           6.4073   -4.2294   23.9285 C.3     1  UNL1        0.0898
     18 C           6.8280   -4.2489   25.3682 C.3     1  UNL1        0.0224
     19 C           7.5370   -3.6060   26.5231 C.3     1  UNL1        0.0191
     20 C           8.1501   -3.2167   27.8356 C.3     1  UNL1        0.0722
     21 N           7.8396   -4.2956   28.8304 N.3     1  UNL1       -0.2707
     22 C           7.0347   -5.3517   28.1328 C.3     1  UNL1        0.0722
     23 C           6.8476   -4.9254   26.7068 C.3     1  UNL1        0.0191
     24 C           8.2603   -4.3150   30.2701 C.3     1  UNL1        0.0993
     25 C           7.3315   -4.8574   31.3156 C.3     1  UNL1        0.1031
     26 C           8.1221   -6.1315   31.3569 C.3     1  UNL1        0.0307
     27 C           6.5410   -3.5833   31.2742 C.3     1  UNL1        0.0307
     28 O           6.4027   -5.3998   32.3611 O.3     1  UNL1       -0.3854
     29 H           6.6845   -6.2935   32.6117 H       1  UNL1        0.2103
@<TRIPOS>BOND
     1    14    15    1
     2    15    16    1
     3    15     5    1
     4     5     6   ar
     5     6     7   ar
     6     7     1    1
     7     1     2    2
     8     1     3   am
     9     3    17    1
    10    18    17    1
    11    18    19    1
    12    19    20    1
    13    20    21    1
    14    21    24    1
    15    24    25    1
    16    25    26    1
    17    25    27    1
    18    25    28    1
    19    21    22    1
    20    23    22    1
    21     7     8   ar
    22     8     9   ar
    23     9    10   ar
    24    10    11   ar
    25    11    12   ar
    26    12    13   ar
    27    13     5   ar
    28    23    18    1
    29    13     8   ar
    30    23    19    1
    31     3     4    1
    32    28    29    1
