@<TRIPOS>MOLECULE
*****
 42 43 0 0 0
SMALL
GASTEIGER

@<TRIPOS>ATOM
      1 C          -0.0711    2.4789   21.2808 C.ar    1  UNL1        0.0539
      2 S          -1.3912    2.9535   20.7499 S.2     1  UNL1       -0.0619
      3 C          -2.0214    3.8306   21.7908 C.ar    1  UNL1        0.1641
      4 N          -1.0906    3.8981   22.9652 N.ar    1  UNL1       -0.2291
      5 C           0.1147    3.0627   22.6500 C.ar    1  UNL1        0.1414
      6 C           2.8237   -0.2220   19.1419 C.ar    1  UNL1        0.1333
      7 C           1.6865   -0.8102   19.9234 C.ar    1  UNL1        0.0208
      8 C           0.7216    0.0901   20.6364 C.ar    1  UNL1        0.0028
      9 C           0.8938    1.5786   20.5679 C.ar    1  UNL1        0.0191
     10 C           2.0310    2.1667   19.7863 C.ar    1  UNL1        0.0700
     11 CL          2.2033    3.6553   19.7178 Cl      1  UNL1       -0.0813
     12 C           2.9960    1.2664   19.0734 C.ar    1  UNL1        0.0867
     13 CL          4.1332    1.8547   18.2918 Cl      1  UNL1       -0.0800
     14 S           3.7886   -1.1224   18.4289 S.O2    1  UNL1        0.0613
     15 O           3.0036   -0.9597   17.1611 O.2     1  UNL1       -0.1530
     16 O           4.5737   -1.2850   19.6967 O.2     1  UNL1       -0.1530
     17 N           4.7536   -2.0227   17.7160 N.3     1  UNL1       -0.1723
     18 H           4.2510   -2.4256   16.9251 H       1  UNL1        0.1491
     19 C           5.3955   -3.1638   18.4478 C.3     1  UNL1        0.1700
     20 C           6.7762   -3.0101   19.0136 C.3     1  UNL1        0.4118
     21 F           8.1569   -2.8564   19.5794 F       1  UNL1       -0.1685
     22 F           7.1639   -2.1637   17.8375 F       1  UNL1       -0.1685
     23 F           6.3885   -3.8566   20.1897 F       1  UNL1       -0.1685
     24 C           3.2427   -4.4566   19.1144 C.3     1  UNL1        0.0018
     25 C           4.6568   -4.4587   18.6139 C.3     1  UNL1        0.0261
     26 C          -3.3491    4.5193   21.6773 C.2     1  UNL1        0.2699
     27 O          -3.8753    4.9163   20.3299 O.2     1  UNL1       -0.2679
     28 N          -4.1506    4.8108   22.9112 N.am    1  UNL1       -0.2969
     29 H          -3.8052    4.5502   23.7956 H       1  UNL1        0.1499
     30 C          -5.4783    5.4995   22.7977 C.3     1  UNL1        0.1166
     31 C          -6.7467    4.7078   22.9200 C.3     1  UNL1        0.1064
     32 C          -6.3739    4.3271   24.3222 C.3     1  UNL1        0.0311
     33 C          -7.1194    5.0886   21.5177 C.3     1  UNL1        0.0311
     34 O          -8.0149    3.9163   23.0421 O.3     1  UNL1       -0.3851
     35 H          -8.0611    3.5135   23.9234 H       1  UNL1        0.2103
     36 C           1.2981    2.8488   23.5466 C.2     1  UNL1        0.2673
     37 O           2.6456    3.3739   23.1482 O.2     1  UNL1       -0.2682
     38 N           1.1341    2.1098   24.8415 N.am    1  UNL1       -0.2748
     39 C           2.3174    1.8958   25.7381 C.3     1  UNL1        0.0938
     40 C           3.1203    0.6332   25.6319 C.3     1  UNL1        0.0233
     41 C          -0.2134    1.5846   25.2400 C.3     1  UNL1        0.0938
     42 C          -0.5906    1.5100   26.6898 C.3     1  UNL1        0.0233
@<TRIPOS>BOND
     1    24    25    1
     2    19    25    1
     3    19    17    1
     4    17    14    1
     5    14    15    2
     6    14    16    2
     7    14     6    1
     8     6     7   ar
     9     7     8   ar
    10     8     9   ar
    11     9     1    1
    12     1     2   ar
    13     2     3   ar
    14     3    26    1
    15    26    27    2
    16    26    28   am
    17    28    30    1
    18    30    31    1
    19    31    32    1
    20    31    33    1
    21    31    34    1
    22     3     4   ar
    23     4     5   ar
    24     5    36    1
    25    36    37    2
    26    36    38   am
    27    38    39    1
    28    39    40    1
    29    38    41    1
    30    41    42    1
    31     9    10   ar
    32    10    11    1
    33    10    12   ar
    34    12    13    1
    35    19    20    1
    36    20    21    1
    37    20    22    1
    38    20    23    1
    39    12     6   ar
    40     5     1   ar
    41    17    18    1
    42    28    29    1
    43    34    35    1
@<TRIPOS>MOLECULE
*****
 42 43 0 0 0
SMALL
GASTEIGER

@<TRIPOS>ATOM
      1 C           1.3076    2.1623   18.9035 C.ar    1  UNL1        0.0539
      2 S           1.5509    0.7167   18.5856 S.2     1  UNL1       -0.0619
      3 C           2.9689    0.5775   18.1164 C.ar    1  UNL1        0.1641
      4 N           3.6019    1.9371   18.1444 N.ar    1  UNL1       -0.2291
      5 C           2.5752    2.9165   18.6308 C.ar    1  UNL1        0.1414
      6 C          -2.5480    3.9265   20.4107 C.ar    1  UNL1        0.1333
      7 C          -1.6543    3.1676   21.3461 C.ar    1  UNL1        0.0208
      8 C          -0.3691    2.5795   20.8438 C.ar    1  UNL1        0.0028
      9 C           0.0224    2.7503   19.4059 C.ar    1  UNL1        0.0191
     10 C          -0.8713    3.5093   18.4704 C.ar    1  UNL1        0.0700
     11 CL         -0.4799    3.6802   17.0325 Cl      1  UNL1       -0.0813
     12 C          -2.1565    4.0974   18.9728 C.ar    1  UNL1        0.0867
     13 CL         -3.0503    4.8564   18.0372 Cl      1  UNL1       -0.0800
     14 S          -3.8332    4.5146   20.9131 S.O2    1  UNL1        0.0613
     15 O          -4.5658    3.2766   20.4880 O.2     1  UNL1       -0.1530
     16 O          -3.1006    5.7526   21.3381 O.2     1  UNL1       -0.1530
     17 N          -5.1184    5.1027   21.4154 N.3     1  UNL1       -0.1723
     18 H          -4.9416    6.0922   21.5885 H       1  UNL1        0.1491
     19 C          -5.7601    4.5541   22.6553 C.3     1  UNL1        0.1700
     20 C          -4.9135    4.1825   23.8364 C.3     1  UNL1        0.4118
     21 F          -4.0668    3.8109   25.0176 F       1  UNL1       -0.1685
     22 F          -4.7431    5.6347   24.1712 F       1  UNL1       -0.1685
     23 F          -5.0838    2.7303   23.5016 F       1  UNL1       -0.1685
     24 C          -8.0066    4.8021   23.9367 C.3     1  UNL1        0.0018
     25 C          -7.2485    4.3772   22.7141 C.3     1  UNL1        0.0261
     26 C           3.6365   -0.6974   17.6936 C.2     1  UNL1        0.2699
     27 O           3.8806   -0.9696   16.2388 O.2     1  UNL1       -0.2679
     28 N           4.0601   -1.7003   18.7255 N.am    1  UNL1       -0.2969
     29 H           3.8999   -1.5217   19.6803 H       1  UNL1        0.1499
     30 C           4.7277   -2.9752   18.3027 C.3     1  UNL1        0.1166
     31 C           5.4794   -3.7972   19.3075 C.3     1  UNL1        0.1064
     32 C           4.6635   -4.9993   18.9344 C.3     1  UNL1        0.0311
     33 C           6.2953   -2.5949   19.6805 C.3     1  UNL1        0.0311
     34 O           6.2311   -4.6190   20.3122 O.3     1  UNL1       -0.3851
     35 H           5.8957   -5.5291   20.3013 H       1  UNL1        0.2103
     36 C           2.7801    4.3913   18.8126 C.2     1  UNL1        0.2673
     37 O           2.3503    5.3463   17.7386 O.2     1  UNL1       -0.2682
     38 N           3.4149    4.9111   20.0683 N.am    1  UNL1       -0.2748
     39 C           3.6198    6.3859   20.2501 C.3     1  UNL1        0.0938
     40 C           2.4668    7.2603   20.6449 C.3     1  UNL1        0.0233
     41 C           3.8448    3.9562   21.1423 C.3     1  UNL1        0.0938
     42 C           2.9043    3.6097   22.2583 C.3     1  UNL1        0.0233
@<TRIPOS>BOND
     1    24    25    1
     2    19    25    1
     3    19    17    1
     4    17    14    1
     5    14    15    2
     6    14    16    2
     7    14     6    1
     8     6     7   ar
     9     7     8   ar
    10     8     9   ar
    11     9     1    1
    12     1     2   ar
    13     2     3   ar
    14     3    26    1
    15    26    27    2
    16    26    28   am
    17    28    30    1
    18    30    31    1
    19    31    32    1
    20    31    33    1
    21    31    34    1
    22     3     4   ar
    23     4     5   ar
    24     5    36    1
    25    36    37    2
    26    36    38   am
    27    38    39    1
    28    39    40    1
    29    38    41    1
    30    41    42    1
    31     9    10   ar
    32    10    11    1
    33    10    12   ar
    34    12    13    1
    35    19    20    1
    36    20    21    1
    37    20    22    1
    38    20    23    1
    39    12     6   ar
    40     5     1   ar
    41    17    18    1
    42    28    29    1
    43    34    35    1
@<TRIPOS>MOLECULE
*****
 42 43 0 0 0
SMALL
GASTEIGER

@<TRIPOS>ATOM
      1 C           0.6826    3.0237   19.0409 C.ar    1  UNL1        0.0539
      2 S          -0.4370    3.2002   18.0584 S.2     1  UNL1       -0.0619
      3 C          -1.2767    4.3561   18.5152 C.ar    1  UNL1        0.1641
      4 N          -0.6762    4.8940   19.7802 N.ar    1  UNL1       -0.2291
      5 C           0.5347    4.0704   20.1050 C.ar    1  UNL1        0.1414
      6 C           3.9168   -0.0982   18.8327 C.ar    1  UNL1        0.1333
      7 C           4.1529    1.2659   18.2553 C.ar    1  UNL1        0.0208
      8 C           3.0748    2.3065   18.3247 C.ar    1  UNL1        0.0028
      9 C           1.7607    1.9830   18.9715 C.ar    1  UNL1        0.0191
     10 C           1.5246    0.6189   19.5490 C.ar    1  UNL1        0.0700
     11 CL          0.2105    0.2954   20.1958 Cl      1  UNL1       -0.0813
     12 C           2.6027   -0.4217   19.4796 C.ar    1  UNL1        0.0867
     13 CL          2.3666   -1.7859   20.0570 Cl      1  UNL1       -0.0800
     14 S           4.9949   -1.1389   18.7634 S.O2    1  UNL1        0.0613
     15 O           5.4677   -0.7402   20.1300 O.2     1  UNL1       -0.1530
     16 O           4.5222   -1.5375   17.3968 O.2     1  UNL1       -0.1530
     17 N           6.0730   -2.1795   18.6940 N.3     1  UNL1       -0.1723
     18 H           6.0743   -2.5389   17.7394 H       1  UNL1        0.1491
     19 C           6.0258   -3.3702   19.6049 C.3     1  UNL1        0.1700
     20 C           4.7888   -4.2162   19.6701 C.3     1  UNL1        0.4118
     21 F           3.5518   -5.0621   19.7352 F       1  UNL1       -0.1685
     22 F           4.6316   -3.8744   21.1221 F       1  UNL1       -0.1685
     23 F           4.9461   -4.5579   18.2180 F       1  UNL1       -0.1685
     24 C           8.5397   -3.0625   20.1844 C.3     1  UNL1        0.0018
     25 C           7.2156   -3.7151   20.4508 C.3     1  UNL1        0.0261
     26 C          -2.5019    4.8819   17.8278 C.2     1  UNL1        0.2699
     27 O          -2.3652    5.8047   16.6532 O.2     1  UNL1       -0.2679
     28 N          -3.8639    4.4847   18.3150 N.am    1  UNL1       -0.2969
     29 H          -3.9536    3.8790   19.0860 H       1  UNL1        0.1499
     30 C          -5.0890    5.0105   17.6276 C.3     1  UNL1        0.1166
     31 C          -6.4511    4.6146   18.1160 C.3     1  UNL1        0.1064
     32 C          -7.0258    5.8707   17.5311 C.3     1  UNL1        0.0311
     33 C          -5.8762    3.3585   18.7008 C.3     1  UNL1        0.0311
     34 O          -7.8130    4.2187   18.6043 O.3     1  UNL1       -0.3851
     35 H          -8.4570    4.8992   18.3530 H       1  UNL1        0.2103
     36 C           1.4390    4.2604   21.2866 C.2     1  UNL1        0.2673
     37 O           2.7024    5.0565   21.1439 O.2     1  UNL1       -0.2682
     38 N           1.0801    3.6544   22.6109 N.am    1  UNL1       -0.2748
     39 C           1.9845    3.8443   23.7925 C.3     1  UNL1        0.0938
     40 C           2.1490    2.7416   24.7960 C.3     1  UNL1        0.0233
     41 C          -0.1832    2.8582   22.7537 C.3     1  UNL1        0.0938
     42 C          -1.4280    3.5136   23.2741 C.3     1  UNL1        0.0233
@<TRIPOS>BOND
     1    24    25    1
     2    19    25    1
     3    19    17    1
     4    17    14    1
     5    14    15    2
     6    14    16    2
     7    14     6    1
     8     6     7   ar
     9     7     8   ar
    10     8     9   ar
    11     9     1    1
    12     1     2   ar
    13     2     3   ar
    14     3    26    1
    15    26    27    2
    16    26    28   am
    17    28    30    1
    18    30    31    1
    19    31    32    1
    20    31    33    1
    21    31    34    1
    22     3     4   ar
    23     4     5   ar
    24     5    36    1
    25    36    37    2
    26    36    38   am
    27    38    39    1
    28    39    40    1
    29    38    41    1
    30    41    42    1
    31     9    10   ar
    32    10    11    1
    33    10    12   ar
    34    12    13    1
    35    19    20    1
    36    20    21    1
    37    20    22    1
    38    20    23    1
    39    12     6   ar
    40     5     1   ar
    41    17    18    1
    42    28    29    1
    43    34    35    1
@<TRIPOS>MOLECULE
*****
 42 43 0 0 0
SMALL
GASTEIGER

@<TRIPOS>ATOM
      1 C           5.0527   -1.9730   20.6518 C.ar    1  UNL1        0.0539
      2 S           5.4719   -2.8884   21.7637 S.2     1  UNL1       -0.0619
      3 C           6.7469   -3.5633   21.3528 C.ar    1  UNL1        0.1641
      4 N           7.1157   -3.0651   19.9869 N.ar    1  UNL1       -0.2291
      5 C           6.0686   -2.0823   19.5537 C.ar    1  UNL1        0.1414
      6 C           1.3904    0.6416   20.6167 C.ar    1  UNL1        0.1333
      7 C           1.3024   -0.7789   20.1429 C.ar    1  UNL1        0.0208
      8 C           2.5231   -1.6504   20.1546 C.ar    1  UNL1        0.0028
      9 C           3.8319   -1.1015   20.6401 C.ar    1  UNL1        0.0191
     10 C           3.9199    0.3189   21.1139 C.ar    1  UNL1        0.0700
     11 CL          5.2287    0.8679   21.5995 Cl      1  UNL1       -0.0813
     12 C           2.6991    1.1905   21.1022 C.ar    1  UNL1        0.0867
     13 CL          2.7872    2.6110   21.5761 Cl      1  UNL1       -0.0800
     14 S           0.1696    1.5131   20.6050 S.O2    1  UNL1        0.0613
     15 O           0.4851    1.9361   19.2009 O.2     1  UNL1       -0.1530
     16 O          -0.1459    1.0901   22.0091 O.2     1  UNL1       -0.1530
     17 N          -1.0512    2.3846   20.5933 N.3     1  UNL1       -0.1723
     18 H          -1.1341    2.7627   19.6496 H       1  UNL1        0.1491
     19 C          -1.1518    3.5472   21.5358 C.3     1  UNL1        0.1700
     20 C          -2.3188    3.6549   22.4721 C.3     1  UNL1        0.4118
     21 F          -3.4857    3.7625   23.4083 F       1  UNL1       -0.1685
     22 F          -1.3882    4.0227   23.5896 F       1  UNL1       -0.1685
     23 F          -3.2493    3.2871   21.3545 F       1  UNL1       -0.1685
     24 C           0.0605    5.5280   20.3710 C.3     1  UNL1        0.0018
     25 C          -0.0854    4.6021   21.5421 C.3     1  UNL1        0.0261
     26 C           7.5177   -4.5613   22.1651 C.2     1  UNL1        0.2699
     27 O           8.4095   -5.5556   21.4824 O.2     1  UNL1       -0.2679
     28 N           7.3968   -4.5649   23.6602 N.am    1  UNL1       -0.2969
     29 H           6.8115   -3.9123   24.1083 H       1  UNL1        0.1499
     30 C           8.1676   -5.5629   24.4726 C.3     1  UNL1        0.1166
     31 C           7.4762   -6.3504   25.5460 C.3     1  UNL1        0.1064
     32 C           6.8894   -5.0845   26.0967 C.3     1  UNL1        0.0311
     33 C           8.0631   -7.6162   24.9952 C.3     1  UNL1        0.0311
     34 O           6.7850   -7.1379   26.6193 O.3     1  UNL1       -0.3851
     35 H           6.2782   -6.5359   27.1864 H       1  UNL1        0.2103
     36 C           6.0421   -1.3391   18.2510 C.2     1  UNL1        0.2673
     37 O           5.1325   -1.7919   17.1475 O.2     1  UNL1       -0.2682
     38 N           6.9252   -0.1432   18.0516 N.am    1  UNL1       -0.2748
     39 C           6.8987    0.6000   16.7489 C.3     1  UNL1        0.0938
     40 C           7.8497    1.7360   16.5141 C.3     1  UNL1        0.0233
     41 C           7.8349    0.3097   19.1551 C.3     1  UNL1        0.0938
     42 C           9.2363   -0.2188   19.2363 C.3     1  UNL1        0.0233
@<TRIPOS>BOND
     1    24    25    1
     2    19    25    1
     3    19    17    1
     4    17    14    1
     5    14    15    2
     6    14    16    2
     7    14     6    1
     8     6     7   ar
     9     7     8   ar
    10     8     9   ar
    11     9     1    1
    12     1     2   ar
    13     2     3   ar
    14     3    26    1
    15    26    27    2
    16    26    28   am
    17    28    30    1
    18    30    31    1
    19    31    32    1
    20    31    33    1
    21    31    34    1
    22     3     4   ar
    23     4     5   ar
    24     5    36    1
    25    36    37    2
    26    36    38   am
    27    38    39    1
    28    39    40    1
    29    38    41    1
    30    41    42    1
    31     9    10   ar
    32    10    11    1
    33    10    12   ar
    34    12    13    1
    35    19    20    1
    36    20    21    1
    37    20    22    1
    38    20    23    1
    39    12     6   ar
    40     5     1   ar
    41    17    18    1
    42    28    29    1
    43    34    35    1
@<TRIPOS>MOLECULE
*****
 42 43 0 0 0
SMALL
GASTEIGER

@<TRIPOS>ATOM
      1 C           3.5406    0.2585   27.6090 C.ar    1  UNL1        0.0539
      2 S           4.3960   -0.5717   28.5195 S.2     1  UNL1       -0.0619
      3 C           3.9195   -0.3581   29.9257 C.ar    1  UNL1        0.1641
      4 N           2.7696    0.6042   29.8843 N.ar    1  UNL1       -0.2291
      5 C           2.5354    0.9852   28.4525 C.ar    1  UNL1        0.1414
      6 C           3.9227    0.5227   23.1331 C.ar    1  UNL1        0.1333
      7 C           3.2366   -0.6551   23.7590 C.ar    1  UNL1        0.0208
      8 C           3.1092   -0.7432   25.2510 C.ar    1  UNL1        0.0028
      9 C           3.6680    0.3466   26.1171 C.ar    1  UNL1        0.0191
     10 C           4.3541    1.5245   25.4911 C.ar    1  UNL1        0.0700
     11 CL          4.9129    2.6143   26.3572 Cl      1  UNL1       -0.0813
     12 C           4.4815    1.6125   23.9991 C.ar    1  UNL1        0.0867
     13 CL          5.1677    2.7905   23.3732 Cl      1  UNL1       -0.0800
     14 S           4.0501    0.6108   21.6411 S.O2    1  UNL1        0.0613
     15 O           2.7139    1.2882   21.5670 O.2     1  UNL1       -0.1530
     16 O           5.3864   -0.0667   21.7152 O.2     1  UNL1       -0.1530
     17 N           4.1775    0.6988   20.1491 N.3     1  UNL1       -0.1723
     18 H           3.9569    1.6607   19.8910 H       1  UNL1        0.1491
     19 C           3.3437   -0.1870   19.2716 C.3     1  UNL1        0.1700
     20 C           3.2837   -1.6623   19.5359 C.3     1  UNL1        0.4118
     21 F           3.2237   -3.1376   19.8003 F       1  UNL1       -0.1685
     22 F           1.9170   -1.4999   20.1323 F       1  UNL1       -0.1685
     23 F           4.6505   -1.8248   18.9396 F       1  UNL1       -0.1685
     24 C           1.2692    1.1034   18.3878 C.3     1  UNL1        0.0018
     25 C           2.5699    0.4024   18.1297 C.3     1  UNL1        0.0261
     26 C           4.4924   -0.9949   31.1570 C.2     1  UNL1        0.2699
     27 O           3.5871   -1.3998   32.2825 O.2     1  UNL1       -0.2679
     28 N           5.9705   -1.2269   31.2629 N.am    1  UNL1       -0.2969
     29 H           6.5647   -0.9612   30.5243 H       1  UNL1        0.1499
     30 C           6.5434   -1.8638   32.4943 C.3     1  UNL1        0.1166
     31 C           7.6572   -2.8614   32.3737 C.3     1  UNL1        0.1064
     32 C           8.6453   -1.8068   32.7758 C.3     1  UNL1        0.0311
     33 C           6.6690   -3.9159   31.9717 C.3     1  UNL1        0.0311
     34 O           8.7709   -3.8590   32.2532 O.3     1  UNL1       -0.3851
     35 H           9.6134   -3.4311   32.4723 H       1  UNL1        0.2103
     36 C           1.4811    1.9276   27.9522 C.2     1  UNL1        0.2673
     37 O           1.8446    3.3385   27.5950 O.2     1  UNL1       -0.2682
     38 N           0.0634    1.4593   27.8089 N.am    1  UNL1       -0.2748
     39 C          -0.9909    2.4016   27.3085 C.3     1  UNL1        0.0938
     40 C          -1.1987    2.5800   25.8337 C.3     1  UNL1        0.0233
     41 C          -0.3002    0.0484   28.1660 C.3     1  UNL1        0.0938
     42 C          -1.5244   -0.2254   28.9884 C.3     1  UNL1        0.0233
@<TRIPOS>BOND
     1    24    25    1
     2    19    25    1
     3    19    17    1
     4    17    14    1
     5    14    15    2
     6    14    16    2
     7    14     6    1
     8     6     7   ar
     9     7     8   ar
    10     8     9   ar
    11     9     1    1
    12     1     2   ar
    13     2     3   ar
    14     3    26    1
    15    26    27    2
    16    26    28   am
    17    28    30    1
    18    30    31    1
    19    31    32    1
    20    31    33    1
    21    31    34    1
    22     3     4   ar
    23     4     5   ar
    24     5    36    1
    25    36    37    2
    26    36    38   am
    27    38    39    1
    28    39    40    1
    29    38    41    1
    30    41    42    1
    31     9    10   ar
    32    10    11    1
    33    10    12   ar
    34    12    13    1
    35    19    20    1
    36    20    21    1
    37    20    22    1
    38    20    23    1
    39    12     6   ar
    40     5     1   ar
    41    17    18    1
    42    28    29    1
    43    34    35    1
@<TRIPOS>MOLECULE
*****
 42 43 0 0 0
SMALL
GASTEIGER

@<TRIPOS>ATOM
      1 C          -0.0297    2.5490   20.8111 C.ar    1  UNL1        0.0539
      2 S          -1.3467    2.7349   20.1177 S.2     1  UNL1       -0.0619
      3 C          -2.0990    3.8171   20.8338 C.ar    1  UNL1        0.1641
      4 N          -1.2470    4.3001   21.9699 N.ar    1  UNL1       -0.2291
      5 C           0.0319    3.5164   21.9558 C.ar    1  UNL1        0.1414
      6 C           3.1739   -0.3938   19.6595 C.ar    1  UNL1        0.1333
      7 C           1.9790   -0.8536   20.4409 C.ar    1  UNL1        0.0208
      8 C           0.9111    0.1273   20.8248 C.ar    1  UNL1        0.0028
      9 C           1.0382    1.5681   20.4272 C.ar    1  UNL1        0.0191
     10 C           2.2331    2.0278   19.6458 C.ar    1  UNL1        0.0700
     11 CL          2.3602    3.4686   19.2482 Cl      1  UNL1       -0.0813
     12 C           3.3010    1.0469   19.2619 C.ar    1  UNL1        0.0867
     13 CL          4.4960    1.5067   18.4804 Cl      1  UNL1       -0.0800
     14 S           4.2418   -1.3748   19.2756 S.O2    1  UNL1        0.0613
     15 O           3.5364   -1.6347   17.9775 O.2     1  UNL1       -0.1530
     16 O           4.9472   -1.1149   20.5736 O.2     1  UNL1       -0.1530
     17 N           5.3097   -2.3558   18.8917 N.3     1  UNL1       -0.1723
     18 H           5.1396   -2.6104   17.9188 H       1  UNL1        0.1491
     19 C           5.4595   -3.6382   19.6551 C.3     1  UNL1        0.1700
     20 C           4.3299   -4.6243   19.6939 C.3     1  UNL1        0.4118
     21 F           3.2003   -5.6105   19.7327 F       1  UNL1       -0.1685
     22 F           4.5694   -4.9555   18.2506 F       1  UNL1       -0.1685
     23 F           4.0904   -4.2932   21.1371 F       1  UNL1       -0.1685
     24 C           7.9494   -3.0804   20.1445 C.3     1  UNL1        0.0018
     25 C           6.7391   -3.9346   20.3797 C.3     1  UNL1        0.0261
     26 C          -3.4638    4.3268   20.4766 C.2     1  UNL1        0.2699
     27 O          -3.6244    5.7053   19.9075 O.2     1  UNL1       -0.2679
     28 N          -4.6680    3.4579   20.6885 N.am    1  UNL1       -0.2969
     29 H          -4.5627    2.5532   21.0620 H       1  UNL1        0.1499
     30 C          -6.0328    3.9676   20.3312 C.3     1  UNL1        0.1166
     31 C          -6.8282    4.7485   21.3352 C.3     1  UNL1        0.1064
     32 C          -7.3507    5.6273   20.2375 C.3     1  UNL1        0.0311
     33 C          -6.3057    3.8696   22.4327 C.3     1  UNL1        0.0311
     34 O          -7.6236    5.5293   22.3390 O.3     1  UNL1       -0.3851
     35 H          -8.1136    6.2335   21.8862 H       1  UNL1        0.2103
     36 C           1.1723    3.6726   22.9177 C.2     1  UNL1        0.2673
     37 O           2.1818    4.7633   22.7134 O.2     1  UNL1       -0.2682
     38 N           1.3033    2.7384   24.0838 N.am    1  UNL1       -0.2748
     39 C           2.4437    2.8946   25.0456 C.3     1  UNL1        0.0938
     40 C           2.3768    3.9331   26.1259 C.3     1  UNL1        0.0233
     41 C           0.2940    1.6477   24.2881 C.3     1  UNL1        0.0938
     42 C          -0.2136    1.3441   25.6666 C.3     1  UNL1        0.0233
@<TRIPOS>BOND
     1    24    25    1
     2    19    25    1
     3    19    17    1
     4    17    14    1
     5    14    15    2
     6    14    16    2
     7    14     6    1
     8     6     7   ar
     9     7     8   ar
    10     8     9   ar
    11     9     1    1
    12     1     2   ar
    13     2     3   ar
    14     3    26    1
    15    26    27    2
    16    26    28   am
    17    28    30    1
    18    30    31    1
    19    31    32    1
    20    31    33    1
    21    31    34    1
    22     3     4   ar
    23     4     5   ar
    24     5    36    1
    25    36    37    2
    26    36    38   am
    27    38    39    1
    28    39    40    1
    29    38    41    1
    30    41    42    1
    31     9    10   ar
    32    10    11    1
    33    10    12   ar
    34    12    13    1
    35    19    20    1
    36    20    21    1
    37    20    22    1
    38    20    23    1
    39    12     6   ar
    40     5     1   ar
    41    17    18    1
    42    28    29    1
    43    34    35    1
@<TRIPOS>MOLECULE
*****
 42 43 0 0 0
SMALL
GASTEIGER

@<TRIPOS>ATOM
      1 C           0.5640    2.8153   19.2122 C.ar    1  UNL1        0.0539
      2 S          -0.4577    3.1471   18.1652 S.2     1  UNL1       -0.0619
      3 C          -1.4121    4.1463   18.7490 C.ar    1  UNL1        0.1641
      4 N          -0.9803    4.4320   20.1568 N.ar    1  UNL1       -0.2291
      5 C           0.2409    3.6094   20.4431 C.ar    1  UNL1        0.1414
      6 C           3.9954   -0.0579   18.7429 C.ar    1  UNL1        0.1333
      7 C           4.1114    1.3415   18.2155 C.ar    1  UNL1        0.0208
      8 C           2.9676    2.2992   18.3719 C.ar    1  UNL1        0.0028
      9 C           1.7078    1.8576   19.0558 C.ar    1  UNL1        0.0191
     10 C           1.5917    0.4582   19.5832 C.ar    1  UNL1        0.0700
     11 CL          0.3318    0.0165   20.2671 Cl      1  UNL1       -0.0813
     12 C           2.7355   -0.4996   19.4268 C.ar    1  UNL1        0.0867
     13 CL          2.6194   -1.8990   19.9542 Cl      1  UNL1       -0.0800
     14 S           5.1392   -1.0156   18.5865 S.O2    1  UNL1        0.0613
     15 O           5.7167   -0.5381   19.8858 O.2     1  UNL1       -0.1530
     16 O           4.5616   -1.4932   17.2871 O.2     1  UNL1       -0.1530
     17 N           6.2829   -1.9734   18.4300 N.3     1  UNL1       -0.1723
     18 H           6.1665   -2.4255   17.5232 H       1  UNL1        0.1491
     19 C           6.4884   -3.0670   19.4359 C.3     1  UNL1        0.1700
     20 C           7.8337   -3.2588   20.0710 C.3     1  UNL1        0.4118
     21 F           9.1790   -3.4507   20.7060 F       1  UNL1       -0.1685
     22 F           8.4602   -2.4188   18.9977 F       1  UNL1       -0.1685
     23 F           7.2073   -4.0989   21.1442 F       1  UNL1       -0.1685
     24 C           4.6662   -4.7878   18.7515 C.3     1  UNL1        0.0018
     25 C           5.3485   -3.9687   19.8068 C.3     1  UNL1        0.0261
     26 C          -2.5912    4.7532   18.0480 C.2     1  UNL1        0.2699
     27 O          -2.3841    5.8425   17.0378 O.2     1  UNL1       -0.2679
     28 N          -3.9774    4.2707   18.3573 N.am    1  UNL1       -0.2969
     29 H          -4.1133    3.5558   19.0204 H       1  UNL1        0.1499
     30 C          -5.1565    4.8776   17.6563 C.3     1  UNL1        0.1166
     31 C          -6.5464    4.5948   18.1447 C.3     1  UNL1        0.1064
     32 C          -7.0218    5.8809   17.5362 C.3     1  UNL1        0.0311
     33 C          -6.0709    3.3088   18.7531 C.3     1  UNL1        0.0311
     34 O          -7.9362    4.3120   18.6330 O.3     1  UNL1       -0.3851
     35 H          -8.5257    5.0351   18.3673 H       1  UNL1        0.2103
     36 C           1.0050    3.5851   21.7337 C.2     1  UNL1        0.2673
     37 O           0.5521    2.6999   22.8569 O.2     1  UNL1       -0.2682
     38 N           2.2218    4.4460   21.9012 N.am    1  UNL1       -0.2748
     39 C           2.9858    4.4217   23.1918 C.3     1  UNL1        0.0938
     40 C           3.1116    5.6710   24.0125 C.3     1  UNL1        0.0233
     41 C           2.6747    5.3312   20.7781 C.3     1  UNL1        0.0938
     42 C           4.1031    5.2928   20.3220 C.3     1  UNL1        0.0233
@<TRIPOS>BOND
     1    24    25    1
     2    19    25    1
     3    19    17    1
     4    17    14    1
     5    14    15    2
     6    14    16    2
     7    14     6    1
     8     6     7   ar
     9     7     8   ar
    10     8     9   ar
    11     9     1    1
    12     1     2   ar
    13     2     3   ar
    14     3    26    1
    15    26    27    2
    16    26    28   am
    17    28    30    1
    18    30    31    1
    19    31    32    1
    20    31    33    1
    21    31    34    1
    22     3     4   ar
    23     4     5   ar
    24     5    36    1
    25    36    37    2
    26    36    38   am
    27    38    39    1
    28    39    40    1
    29    38    41    1
    30    41    42    1
    31     9    10   ar
    32    10    11    1
    33    10    12   ar
    34    12    13    1
    35    19    20    1
    36    20    21    1
    37    20    22    1
    38    20    23    1
    39    12     6   ar
    40     5     1   ar
    41    17    18    1
    42    28    29    1
    43    34    35    1
@<TRIPOS>MOLECULE
*****
 42 43 0 0 0
SMALL
GASTEIGER

@<TRIPOS>ATOM
      1 C           4.1981   -0.6311   29.8390 C.ar    1  UNL1        0.0539
      2 S           5.3946   -1.4187   29.3940 S.2     1  UNL1       -0.0619
      3 C           5.0878   -2.0077   28.0490 C.ar    1  UNL1        0.1641
      4 N           3.7016   -1.5841   27.6628 N.ar    1  UNL1       -0.2291
      5 C           3.1518   -0.7333   28.7690 C.ar    1  UNL1        0.1414
      6 C           3.8148    1.6398   33.7050 C.ar    1  UNL1        0.1333
      7 C           3.7054    2.3638   32.3959 C.ar    1  UNL1        0.0208
      8 C           3.8331    1.6069   31.1072 C.ar    1  UNL1        0.0028
      9 C           4.0703    0.1259   31.1277 C.ar    1  UNL1        0.0191
     10 C           4.1798   -0.5981   32.4368 C.ar    1  UNL1        0.0700
     11 CL          4.4170   -2.0791   32.4572 Cl      1  UNL1       -0.0813
     12 C           4.0520    0.1589   33.7254 C.ar    1  UNL1        0.0867
     13 CL          4.1615   -0.5652   35.0346 Cl      1  UNL1       -0.0800
     14 S           3.6871    2.3968   34.9937 S.O2    1  UNL1        0.0613
     15 O           5.1713    2.6127   35.0140 O.2     1  UNL1       -0.1530
     16 O           2.2028    2.1809   34.9733 O.2     1  UNL1       -0.1530
     17 N           3.5593    3.1538   36.2823 N.3     1  UNL1       -0.1723
     18 H           4.3793    3.7563   36.3525 H       1  UNL1        0.1491
     19 C           3.4554    2.4110   37.5813 C.3     1  UNL1        0.1700
     20 C           2.1296    2.2907   38.2726 C.3     1  UNL1        0.4118
     21 F           0.8038    2.1703   38.9638 F       1  UNL1       -0.1685
     22 F           2.2560    0.7961   38.2548 F       1  UNL1       -0.1685
     23 F           2.0032    3.7852   38.2903 F       1  UNL1       -0.1685
     24 C           5.5183    2.5726   39.1525 C.3     1  UNL1        0.0018
     25 C           4.6773    1.7885   38.1892 C.3     1  UNL1        0.0261
     26 C           6.0059   -2.8691   27.2335 C.2     1  UNL1        0.2699
     27 O           6.8364   -2.2583   26.1439 O.2     1  UNL1       -0.2679
     28 N           6.0936   -4.3412   27.5076 N.am    1  UNL1       -0.2969
     29 H           5.5485   -4.7420   28.2228 H       1  UNL1        0.1499
     30 C           7.0117   -5.2025   26.6921 C.3     1  UNL1        0.1166
     31 C           7.4208   -6.5534   27.2001 C.3     1  UNL1        0.1064
     32 C           7.4266   -6.0239   28.6035 C.3     1  UNL1        0.0311
     33 C           7.4150   -7.0829   25.7966 C.3     1  UNL1        0.0311
     34 O           7.8299   -7.9042   27.7080 O.3     1  UNL1       -0.3851
     35 H           7.9217   -7.8726   28.6731 H       1  UNL1        0.2103
     36 C           1.7940   -0.0966   28.7999 C.2     1  UNL1        0.2673
     37 O           0.8280   -0.4427   29.8941 O.2     1  UNL1       -0.2682
     38 N           1.4021    0.8862   27.7367 N.am    1  UNL1       -0.2748
     39 C           0.0443    1.5229   27.7676 C.3     1  UNL1        0.0938
     40 C          -0.6525    1.8660   26.4844 C.3     1  UNL1        0.0233
     41 C           2.3681    1.2324   26.6425 C.3     1  UNL1        0.0938
     42 C           3.2736    2.4192   26.7891 C.3     1  UNL1        0.0233
@<TRIPOS>BOND
     1    24    25    1
     2    19    25    1
     3    19    17    1
     4    17    14    1
     5    14    15    2
     6    14    16    2
     7    14     6    1
     8     6     7   ar
     9     7     8   ar
    10     8     9   ar
    11     9     1    1
    12     1     2   ar
    13     2     3   ar
    14     3    26    1
    15    26    27    2
    16    26    28   am
    17    28    30    1
    18    30    31    1
    19    31    32    1
    20    31    33    1
    21    31    34    1
    22     3     4   ar
    23     4     5   ar
    24     5    36    1
    25    36    37    2
    26    36    38   am
    27    38    39    1
    28    39    40    1
    29    38    41    1
    30    41    42    1
    31     9    10   ar
    32    10    11    1
    33    10    12   ar
    34    12    13    1
    35    19    20    1
    36    20    21    1
    37    20    22    1
    38    20    23    1
    39    12     6   ar
    40     5     1   ar
    41    17    18    1
    42    28    29    1
    43    34    35    1
@<TRIPOS>MOLECULE
*****
 42 43 0 0 0
SMALL
GASTEIGER

@<TRIPOS>ATOM
      1 C           3.7444   -0.0953   29.4956 C.ar    1  UNL1        0.0539
      2 S           4.3796   -0.8492   30.6261 S.2     1  UNL1       -0.0619
      3 C           3.7117   -0.4239   31.9001 C.ar    1  UNL1        0.1641
      4 N           2.6637    0.5929   31.5569 N.ar    1  UNL1       -0.2291
      5 C           2.6839    0.7959   30.0709 C.ar    1  UNL1        0.1414
      6 C           4.8296   -0.4458   25.1425 C.ar    1  UNL1        0.1333
      7 C           3.9250   -1.4620   25.7741 C.ar    1  UNL1        0.0208
      8 C           3.5633   -1.3452   27.2251 C.ar    1  UNL1        0.0028
      9 C           4.1061   -0.2122   28.0445 C.ar    1  UNL1        0.0191
     10 C           5.0108    0.8040   27.4129 C.ar    1  UNL1        0.0700
     11 CL          5.5537    1.9371   28.2324 Cl      1  UNL1       -0.0813
     12 C           5.3725    0.6872   25.9619 C.ar    1  UNL1        0.0867
     13 CL          6.2772    1.7034   25.3303 Cl      1  UNL1       -0.0800
     14 S           5.1914   -0.5627   23.6915 S.O2    1  UNL1        0.0613
     15 O           3.9791    0.2409   23.3245 O.2     1  UNL1       -0.1530
     16 O           6.4037   -1.3663   24.0584 O.2     1  UNL1       -0.1530
     17 N           5.5532   -0.6795   22.2404 N.3     1  UNL1       -0.1723
     18 H           5.5282    0.2641   21.8539 H       1  UNL1        0.1491
     19 C           4.7311   -1.5424   21.3297 C.3     1  UNL1        0.1700
     20 C           4.1262   -0.9587   20.0874 C.3     1  UNL1        0.4118
     21 F           3.5212   -0.3749   18.8451 F       1  UNL1       -0.1685
     22 F           5.4934   -0.8227   19.4855 F       1  UNL1       -0.1685
     23 F           2.7590   -1.0947   20.6893 F       1  UNL1       -0.1685
     24 C           4.3720   -3.9978   20.5601 C.3     1  UNL1        0.0018
     25 C           4.5140   -2.9892   21.6612 C.3     1  UNL1        0.0261
     26 C           4.0351   -0.9271   33.2757 C.2     1  UNL1        0.2699
     27 O           3.9785   -2.3970   33.5692 O.2     1  UNL1       -0.2679
     28 N           4.4151    0.0397   34.3578 N.am    1  UNL1       -0.2969
     29 H           4.4522    1.0045   34.1651 H       1  UNL1        0.1499
     30 C           4.7384   -0.4634   35.7333 C.3     1  UNL1        0.1166
     31 C           5.4813    0.4137   36.6973 C.3     1  UNL1        0.1064
     32 C           6.7818   -0.0143   36.0845 C.3     1  UNL1        0.0311
     33 C           4.1806    0.8415   37.3101 C.3     1  UNL1        0.0311
     34 O           6.2239    1.2907   37.6613 O.3     1  UNL1       -0.3851
     35 H           7.1770    1.2189   37.4955 H       1  UNL1        0.2103
     36 C           1.7989    1.7269   29.2961 C.2     1  UNL1        0.2673
     37 O           2.2265    3.1452   29.0598 O.2     1  UNL1       -0.2682
     38 N           0.4864    1.2397   28.7578 N.am    1  UNL1       -0.2748
     39 C          -0.3985    2.1706   27.9831 C.3     1  UNL1        0.0938
     40 C          -0.4083    2.1222   26.4839 C.3     1  UNL1        0.0233
     41 C           0.0588   -0.1785   28.9941 C.3     1  UNL1        0.0938
     42 C          -1.3689   -0.5792   28.7674 C.3     1  UNL1        0.0233
@<TRIPOS>BOND
     1    24    25    1
     2    19    25    1
     3    19    17    1
     4    17    14    1
     5    14    15    2
     6    14    16    2
     7    14     6    1
     8     6     7   ar
     9     7     8   ar
    10     8     9   ar
    11     9     1    1
    12     1     2   ar
    13     2     3   ar
    14     3    26    1
    15    26    27    2
    16    26    28   am
    17    28    30    1
    18    30    31    1
    19    31    32    1
    20    31    33    1
    21    31    34    1
    22     3     4   ar
    23     4     5   ar
    24     5    36    1
    25    36    37    2
    26    36    38   am
    27    38    39    1
    28    39    40    1
    29    38    41    1
    30    41    42    1
    31     9    10   ar
    32    10    11    1
    33    10    12   ar
    34    12    13    1
    35    19    20    1
    36    20    21    1
    37    20    22    1
    38    20    23    1
    39    12     6   ar
    40     5     1   ar
    41    17    18    1
    42    28    29    1
    43    34    35    1
