@<TRIPOS>MOLECULE
*****
 32 34 0 0 0
SMALL
GASTEIGER

@<TRIPOS>ATOM
      1 C           4.4604    0.3233   34.9985 C.ar    1  UNL1        0.0277
      2 S           5.1007   -0.9385   34.5007 S.2     1  UNL1       -0.0677
      3 C           4.6051   -1.1916   33.1077 C.ar    1  UNL1        0.1200
      4 C           3.6585   -0.0861   32.7446 C.ar    1  UNL1        0.0887
      5 C           3.5691    0.8501   33.9131 C.ar    1  UNL1       -0.0042
      6 C           2.7347    2.0946   33.9839 C.3     1  UNL1        0.0323
      7 C           5.1010    2.1991   39.0384 C.ar    1  UNL1        0.1724
      8 C           6.2404    2.1010   38.0679 C.ar    1  UNL1        0.0401
      9 C           6.0269    1.4757   36.7212 C.ar    1  UNL1        0.0038
     10 C           4.6739    0.9486   36.3451 C.ar    1  UNL1        0.0090
     11 C           3.5345    1.0466   37.3157 C.ar    1  UNL1        0.0405
     12 C           3.7480    1.6719   38.6623 C.ar    1  UNL1        0.1724
     13 C           5.0357    4.2842   40.5869 C.3     1  UNL1        0.2526
     14 O           5.3145    2.8243   40.3851 O.3     1  UNL1       -0.4684
     15 O           2.6085    1.7699   39.6329 O.3     1  UNL1       -0.4684
     16 C           1.2572    2.2177   39.1603 C.3     1  UNL1        0.2526
     17 N           4.9888   -2.3472   32.2317 N.2     1  UNL1       -0.2366
     18 C           6.2477   -2.2861   31.4184 C.2     1  UNL1        0.0994
     19 C           6.6314   -3.4417   30.5424 C.ar    1  UNL1        0.0192
     20 C           7.0544   -4.7422   31.1591 C.ar    1  UNL1        0.0028
     21 C           7.4381   -5.8978   30.2831 C.ar    1  UNL1        0.0146
     22 C           7.3988   -5.7530   28.7906 C.ar    1  UNL1        0.0479
     23 C           6.9759   -4.4526   28.1741 C.ar    1  UNL1        0.0146
     24 C           6.5921   -3.2969   29.0500 C.ar    1  UNL1        0.0028
     25 N           7.7825   -6.9086   27.9146 N.pl3   1  UNL1       -0.3047
     26 C           8.7915   -7.9099   28.3933 C.3     1  UNL1        0.1122
     27 C           7.1572   -7.0629   26.5599 C.3     1  UNL1        0.1070
     28 C           7.9677   -7.5967   25.4162 C.3     1  UNL1        0.1267
     29 C           8.0845   -6.8065   24.1466 C.1     1  UNL1        0.0750
     30 N           8.2014   -6.0162   22.8770 N.1     1  UNL1       -0.1958
     31 C           2.9293    0.0578   31.4417 C.1     1  UNL1        0.1022
     32 N           2.2001    0.2018   30.1388 N.1     1  UNL1       -0.1908
@<TRIPOS>BOND
     1    13    14    1
     2    14     7    1
     3     7     8   ar
     4     8     9   ar
     5     9    10   ar
     6    10     1    1
     7     1     2   ar
     8     2     3   ar
     9     3    17    1
    10    17    18    2
    11    18    19    1
    12    19    20   ar
    13    20    21   ar
    14    21    22   ar
    15    22    25    1
    16    25    26    1
    17    25    27    1
    18    27    28    1
    19    28    29    1
    20    29    30    3
    21    22    23   ar
    22    23    24   ar
    23     3     4   ar
    24     4    31    1
    25    31    32    3
    26     4     5   ar
    27     5     6    1
    28    10    11   ar
    29    11    12   ar
    30    12    15    1
    31    15    16    1
    32    12     7   ar
    33     5     1   ar
    34    24    19   ar
@<TRIPOS>MOLECULE
*****
 32 34 0 0 0
SMALL
GASTEIGER

@<TRIPOS>ATOM
      1 C          -4.9481    4.6800   22.3133 C.ar    1  UNL1        0.0277
      2 S          -3.9256    3.5826   22.3003 S.2     1  UNL1       -0.0677
      3 C          -3.3700    3.4833   20.9105 C.ar    1  UNL1        0.1200
      4 C          -4.0490    4.5193   20.0647 C.ar    1  UNL1        0.0887
      5 C          -5.0244    5.2589   20.9317 C.ar    1  UNL1       -0.0042
      6 C          -5.9189    6.3806   20.4938 C.3     1  UNL1        0.0323
      7 C          -7.3628    6.0032   25.8726 C.ar    1  UNL1        0.1724
      8 C          -5.8643    6.0410   25.9270 C.ar    1  UNL1        0.0401
      9 C          -5.0594    5.6000   24.7405 C.ar    1  UNL1        0.0038
     10 C          -5.7530    5.1211   23.4998 C.ar    1  UNL1        0.0090
     11 C          -7.2515    5.0833   23.4454 C.ar    1  UNL1        0.0405
     12 C          -8.0564    5.5243   24.6319 C.ar    1  UNL1        0.1724
     13 C          -7.6352    6.2362   28.4458 C.3     1  UNL1        0.2526
     14 O          -8.1677    6.4443   27.0590 O.3     1  UNL1       -0.4684
     15 O          -9.5550    5.4865   24.5775 O.3     1  UNL1       -0.4684
     16 C         -10.3353    6.7653   24.5026 C.3     1  UNL1        0.2526
     17 N          -2.3196    2.5175   20.4479 N.2     1  UNL1       -0.2366
     18 C          -0.8936    2.9647   20.3200 C.2     1  UNL1        0.0994
     19 C           0.1567    1.9989   19.8574 C.ar    1  UNL1        0.0192
     20 C           1.1675    2.4238   18.8336 C.ar    1  UNL1        0.0028
     21 C           2.2178    1.4580   18.3709 C.ar    1  UNL1        0.0146
     22 C           2.2574    0.0674   18.9320 C.ar    1  UNL1        0.0479
     23 C           1.2467   -0.3573   19.9558 C.ar    1  UNL1        0.0146
     24 C           0.1963    0.6085   20.4185 C.ar    1  UNL1        0.0028
     25 N           3.3077   -0.8984   18.4694 N.pl3   1  UNL1       -0.3047
     26 C           3.7905   -0.8582   17.0498 C.3     1  UNL1        0.1122
     27 C           3.8753   -1.9044   19.4264 C.3     1  UNL1        0.1070
     28 C           4.4163   -3.2058   18.9130 C.3     1  UNL1        0.1267
     29 C           3.9486   -4.5001   19.5098 C.1     1  UNL1        0.0750
     30 N           3.4810   -5.7943   20.1067 N.1     1  UNL1       -0.1958
     31 C          -3.7970    4.7715   18.6076 C.1     1  UNL1        0.1022
     32 N          -3.5450    5.0236   17.1506 N.1     1  UNL1       -0.1908
@<TRIPOS>BOND
     1    13    14    1
     2    14     7    1
     3     7     8   ar
     4     8     9   ar
     5     9    10   ar
     6    10     1    1
     7     1     2   ar
     8     2     3   ar
     9     3    17    1
    10    17    18    2
    11    18    19    1
    12    19    20   ar
    13    20    21   ar
    14    21    22   ar
    15    22    25    1
    16    25    26    1
    17    25    27    1
    18    27    28    1
    19    28    29    1
    20    29    30    3
    21    22    23   ar
    22    23    24   ar
    23     3     4   ar
    24     4    31    1
    25    31    32    3
    26     4     5   ar
    27     5     6    1
    28    10    11   ar
    29    11    12   ar
    30    12    15    1
    31    15    16    1
    32    12     7   ar
    33     5     1   ar
    34    24    19   ar
@<TRIPOS>MOLECULE
*****
 32 34 0 0 0
SMALL
GASTEIGER

@<TRIPOS>ATOM
      1 C           1.7565    0.2594   20.4343 C.ar    1  UNL1        0.0277
      2 S           0.4966    0.5915   21.1773 S.2     1  UNL1       -0.0677
      3 C          -0.1760    1.7273   20.4650 C.ar    1  UNL1        0.1200
      4 C           0.6683    2.0973   19.2817 C.ar    1  UNL1        0.0887
      5 C           1.8627    1.1901   19.2627 C.ar    1  UNL1       -0.0042
      6 C           2.9690    1.2100   18.2499 C.3     1  UNL1        0.0323
      7 C           4.7011   -2.9630   21.5277 C.ar    1  UNL1        0.1724
      8 C           4.1748   -2.0379   22.5847 C.ar    1  UNL1        0.0401
      9 C           3.1933   -0.9638   22.2202 C.ar    1  UNL1        0.0038
     10 C           2.7381   -0.8147   20.7987 C.ar    1  UNL1        0.0090
     11 C           3.2643   -1.7399   19.7418 C.ar    1  UNL1        0.0405
     12 C           4.2459   -2.8140   20.1063 C.ar    1  UNL1        0.1724
     13 C           6.2919   -4.0627   23.2626 C.3     1  UNL1        0.2526
     14 O           5.6826   -4.0371   21.8922 O.3     1  UNL1       -0.4684
     15 O           4.7721   -3.7391   19.0493 O.3     1  UNL1       -0.4684
     16 C           4.1935   -5.1150   18.9010 C.3     1  UNL1        0.2526
     17 N          -1.4664    2.3789   20.8657 N.2     1  UNL1       -0.2366
     18 C          -1.4957    3.3388   22.0179 C.2     1  UNL1        0.0994
     19 C          -2.7861    3.9903   22.4186 C.ar    1  UNL1        0.0192
     20 C          -2.7718    5.3291   23.0952 C.ar    1  UNL1        0.0028
     21 C          -4.0622    5.9806   23.4959 C.ar    1  UNL1        0.0146
     22 C          -5.3667    5.2934   23.2200 C.ar    1  UNL1        0.0479
     23 C          -5.3809    3.9547   22.5435 C.ar    1  UNL1        0.0146
     24 C          -4.0905    3.3031   22.1428 C.ar    1  UNL1        0.0028
     25 N          -6.6570    5.9449   23.6207 N.pl3   1  UNL1       -0.3047
     26 C          -7.3809    6.8332   22.6528 C.3     1  UNL1        0.1122
     27 C          -7.2235    5.7081   24.9893 C.3     1  UNL1        0.1070
     28 C          -6.8274    6.5988   26.1293 C.3     1  UNL1        0.1267
     29 C          -7.4331    6.3944   27.4863 C.1     1  UNL1        0.0750
     30 N          -8.0389    6.1900   28.8432 N.1     1  UNL1       -0.1958
     31 C           0.3705    3.1838   18.2913 C.1     1  UNL1        0.1022
     32 N           0.0728    4.2702   17.3008 N.1     1  UNL1       -0.1908
@<TRIPOS>BOND
     1    13    14    1
     2    14     7    1
     3     7     8   ar
     4     8     9   ar
     5     9    10   ar
     6    10     1    1
     7     1     2   ar
     8     2     3   ar
     9     3    17    1
    10    17    18    2
    11    18    19    1
    12    19    20   ar
    13    20    21   ar
    14    21    22   ar
    15    22    25    1
    16    25    26    1
    17    25    27    1
    18    27    28    1
    19    28    29    1
    20    29    30    3
    21    22    23   ar
    22    23    24   ar
    23     3     4   ar
    24     4    31    1
    25    31    32    3
    26     4     5   ar
    27     5     6    1
    28    10    11   ar
    29    11    12   ar
    30    12    15    1
    31    15    16    1
    32    12     7   ar
    33     5     1   ar
    34    24    19   ar
@<TRIPOS>MOLECULE
*****
 32 34 0 0 0
SMALL
GASTEIGER

@<TRIPOS>ATOM
      1 C          -3.2147    3.9803   20.9695 C.ar    1  UNL1        0.0277
      2 S          -1.9699    3.1811   21.2178 S.2     1  UNL1       -0.0677
      3 C          -1.1716    3.1600   19.9481 C.ar    1  UNL1        0.1200
      4 C          -1.9230    3.9462   18.9150 C.ar    1  UNL1        0.0887
      5 C          -3.1857    4.4532   19.5463 C.ar    1  UNL1       -0.0042
      6 C          -4.2352    5.2867   18.8726 C.3     1  UNL1        0.0323
      7 C          -6.4654    4.8132   23.9678 C.ar    1  UNL1        0.1724
      8 C          -6.6113    5.2872   22.5522 C.ar    1  UNL1        0.0401
      9 C          -5.5278    5.0096   21.5528 C.ar    1  UNL1        0.0038
     10 C          -4.2983    4.2579   21.9689 C.ar    1  UNL1        0.0090
     11 C          -4.1523    3.7839   23.3845 C.ar    1  UNL1        0.0405
     12 C          -5.2359    4.0615   24.3839 C.ar    1  UNL1        0.1724
     13 C          -8.6702    6.0239   24.6180 C.3     1  UNL1        0.2526
     14 O          -7.5489    5.0908   24.9672 O.3     1  UNL1       -0.4684
     15 O          -5.0898    3.5874   25.7996 O.3     1  UNL1       -0.4684
     16 C          -4.4947    4.4934   26.8363 C.3     1  UNL1        0.2526
     17 N           0.1467    2.4733   19.7468 N.2     1  UNL1       -0.2366
     18 C           0.2087    0.9765   19.6702 C.2     1  UNL1        0.0994
     19 C           1.5270    0.2898   19.4689 C.ar    1  UNL1        0.0192
     20 C           2.0334   -0.6777   20.4974 C.ar    1  UNL1        0.0028
     21 C           3.3516   -1.3644   20.2961 C.ar    1  UNL1        0.0146
     22 C           4.1635   -1.0838   19.0664 C.ar    1  UNL1        0.0479
     23 C           3.6571   -0.1163   18.0380 C.ar    1  UNL1        0.0146
     24 C           2.3388    0.5704   18.2393 C.ar    1  UNL1        0.0028
     25 N           5.4818   -1.7705   18.8651 N.pl3   1  UNL1       -0.3047
     26 C           6.6594   -0.9971   18.3504 C.3     1  UNL1        0.1122
     27 C           5.6225   -3.2306   19.1786 C.3     1  UNL1        0.1070
     28 C           4.6480   -4.2175   18.6074 C.3     1  UNL1        0.1267
     29 C           3.9048   -5.1501   19.5172 C.1     1  UNL1        0.0750
     30 N           3.1616   -6.0828   20.4271 N.1     1  UNL1       -0.1958
     31 C          -1.4881    4.1837   17.4992 C.1     1  UNL1        0.1022
     32 N          -1.0532    4.4212   16.0835 N.1     1  UNL1       -0.1908
@<TRIPOS>BOND
     1    13    14    1
     2    14     7    1
     3     7     8   ar
     4     8     9   ar
     5     9    10   ar
     6    10     1    1
     7     1     2   ar
     8     2     3   ar
     9     3    17    1
    10    17    18    2
    11    18    19    1
    12    19    20   ar
    13    20    21   ar
    14    21    22   ar
    15    22    25    1
    16    25    26    1
    17    25    27    1
    18    27    28    1
    19    28    29    1
    20    29    30    3
    21    22    23   ar
    22    23    24   ar
    23     3     4   ar
    24     4    31    1
    25    31    32    3
    26     4     5   ar
    27     5     6    1
    28    10    11   ar
    29    11    12   ar
    30    12    15    1
    31    15    16    1
    32    12     7   ar
    33     5     1   ar
    34    24    19   ar
@<TRIPOS>MOLECULE
*****
 32 34 0 0 0
SMALL
GASTEIGER

@<TRIPOS>ATOM
      1 C           7.1707   -4.4417   22.8789 C.ar    1  UNL1        0.0277
      2 S           6.0228   -3.4908   23.0463 S.2     1  UNL1       -0.0677
      3 C           5.8842   -2.7034   21.7771 C.ar    1  UNL1        0.1200
      4 C           6.9464   -3.1677   20.8253 C.ar    1  UNL1        0.0887
      5 C           7.7415   -4.2421   21.5062 C.ar    1  UNL1       -0.0042
      6 C           8.9034   -4.9861   20.9177 C.3     1  UNL1        0.0323
      7 C           8.6432   -7.3781   25.9545 C.ar    1  UNL1        0.1724
      8 C           8.9094   -7.6204   24.4984 C.ar    1  UNL1        0.0401
      9 C           8.4185   -6.6416   23.4732 C.ar    1  UNL1        0.0038
     10 C           7.6615   -5.4205   23.9041 C.ar    1  UNL1        0.0090
     11 C           7.3953   -5.1782   25.3602 C.ar    1  UNL1        0.0405
     12 C           7.8862   -6.1569   26.3854 C.ar    1  UNL1        0.1724
     13 C           8.1889   -9.3595   27.5723 C.3     1  UNL1        0.2526
     14 O           9.1341   -8.3568   26.9797 O.3     1  UNL1       -0.4684
     15 O           7.6200   -5.9146   27.8416 O.3     1  UNL1       -0.4684
     16 C           8.4918   -4.9715   28.6166 C.3     1  UNL1        0.2526
     17 N           4.8627   -1.6386   21.5073 N.2     1  UNL1       -0.2366
     18 C           4.0106   -1.7119   20.2750 C.2     1  UNL1        0.0994
     19 C           2.9891   -0.6472   20.0051 C.ar    1  UNL1        0.0192
     20 C           1.8103   -0.4897   20.9195 C.ar    1  UNL1        0.0028
     21 C           0.7889    0.5751   20.6496 C.ar    1  UNL1        0.0146
     22 C           0.9460    1.4823   19.4655 C.ar    1  UNL1        0.0479
     23 C           2.1247    1.3248   18.5512 C.ar    1  UNL1        0.0146
     24 C           3.1462    0.2600   18.8210 C.ar    1  UNL1        0.0028
     25 N          -0.0755    2.5471   19.1956 N.pl3   1  UNL1       -0.3047
     26 C          -0.1901    3.1463   17.8253 C.3     1  UNL1        0.1122
     27 C          -0.9823    3.0126   20.2960 C.3     1  UNL1        0.1070
     28 C          -2.3450    3.5475   19.9690 C.3     1  UNL1        0.1267
     29 C          -3.5222    3.1711   20.8191 C.1     1  UNL1        0.0750
     30 N          -4.6993    2.7948   21.6693 N.1     1  UNL1       -0.1958
     31 C           7.1737   -2.6488   19.4364 C.1     1  UNL1        0.1022
     32 N           7.4010   -2.1299   18.0474 N.1     1  UNL1       -0.1908
@<TRIPOS>BOND
     1    13    14    1
     2    14     7    1
     3     7     8   ar
     4     8     9   ar
     5     9    10   ar
     6    10     1    1
     7     1     2   ar
     8     2     3   ar
     9     3    17    1
    10    17    18    2
    11    18    19    1
    12    19    20   ar
    13    20    21   ar
    14    21    22   ar
    15    22    25    1
    16    25    26    1
    17    25    27    1
    18    27    28    1
    19    28    29    1
    20    29    30    3
    21    22    23   ar
    22    23    24   ar
    23     3     4   ar
    24     4    31    1
    25    31    32    3
    26     4     5   ar
    27     5     6    1
    28    10    11   ar
    29    11    12   ar
    30    12    15    1
    31    15    16    1
    32    12     7   ar
    33     5     1   ar
    34    24    19   ar
@<TRIPOS>MOLECULE
*****
 32 34 0 0 0
SMALL
GASTEIGER

@<TRIPOS>ATOM
      1 C           1.8567    0.1397   20.1701 C.ar    1  UNL1        0.0277
      2 S           0.5276    0.3755   20.8242 S.2     1  UNL1       -0.0677
      3 C          -0.0827    1.5985   20.2064 C.ar    1  UNL1        0.1200
      4 C           0.8692    2.1186   19.1704 C.ar    1  UNL1        0.0887
      5 C           2.0678    1.2170   19.1480 C.ar    1  UNL1       -0.0042
      6 C           3.2670    1.3666   18.2594 C.3     1  UNL1        0.0323
      7 C           4.7097   -3.2112   21.1092 C.ar    1  UNL1        0.1724
      8 C           4.2701   -2.9747   19.6947 C.ar    1  UNL1        0.0401
      9 C           3.3191   -1.8578   19.3817 C.ar    1  UNL1        0.0038
     10 C           2.8077   -0.9773   20.4831 C.ar    1  UNL1        0.0090
     11 C           3.2473   -1.2138   21.8976 C.ar    1  UNL1        0.0405
     12 C           4.1983   -2.3308   22.2106 C.ar    1  UNL1        0.1724
     13 C           7.1361   -4.1307   21.2382 C.3     1  UNL1        0.2526
     14 O           5.6607   -4.3282   21.4222 O.3     1  UNL1       -0.4684
     15 O           4.6379   -2.5672   23.6252 O.3     1  UNL1       -0.4684
     16 C           5.9415   -2.0050   24.1094 C.3     1  UNL1        0.2526
     17 N          -1.4116    2.1964   20.5621 N.2     1  UNL1       -0.2366
     18 C          -1.5063    3.2142   21.6599 C.2     1  UNL1        0.0994
     19 C          -2.8352    3.8121   22.0156 C.ar    1  UNL1        0.0192
     20 C          -2.9069    4.9644   22.9734 C.ar    1  UNL1        0.0028
     21 C          -4.2358    5.5623   23.3292 C.ar    1  UNL1        0.0146
     22 C          -5.4930    5.0080   22.7271 C.ar    1  UNL1        0.0479
     23 C          -5.4212    3.8558   21.7694 C.ar    1  UNL1        0.0146
     24 C          -4.0923    3.2579   21.4136 C.ar    1  UNL1        0.0028
     25 N          -6.8219    5.6059   23.0828 N.pl3   1  UNL1       -0.3047
     26 C          -7.5110    6.5279   22.1211 C.3     1  UNL1        0.1122
     27 C          -7.4616    5.2819   24.4003 C.3     1  UNL1        0.1070
     28 C          -7.2210    6.1654   25.5883 C.3     1  UNL1        0.1267
     29 C          -6.2060    5.7737   26.6210 C.1     1  UNL1        0.0750
     30 N          -5.1909    5.3819   27.6535 N.1     1  UNL1       -0.1958
     31 C           0.6594    3.3280   18.3082 C.1     1  UNL1        0.1022
     32 N           0.4496    4.5374   17.4460 N.1     1  UNL1       -0.1908
@<TRIPOS>BOND
     1    13    14    1
     2    14     7    1
     3     7     8   ar
     4     8     9   ar
     5     9    10   ar
     6    10     1    1
     7     1     2   ar
     8     2     3   ar
     9     3    17    1
    10    17    18    2
    11    18    19    1
    12    19    20   ar
    13    20    21   ar
    14    21    22   ar
    15    22    25    1
    16    25    26    1
    17    25    27    1
    18    27    28    1
    19    28    29    1
    20    29    30    3
    21    22    23   ar
    22    23    24   ar
    23     3     4   ar
    24     4    31    1
    25    31    32    3
    26     4     5   ar
    27     5     6    1
    28    10    11   ar
    29    11    12   ar
    30    12    15    1
    31    15    16    1
    32    12     7   ar
    33     5     1   ar
    34    24    19   ar
@<TRIPOS>MOLECULE
*****
 32 34 0 0 0
SMALL
GASTEIGER

@<TRIPOS>ATOM
      1 C           7.4230   -4.1155   29.5418 C.ar    1  UNL1        0.0277
      2 S           6.9985   -3.6996   28.1645 S.2     1  UNL1       -0.0677
      3 C           7.1152   -4.8930   27.2633 C.ar    1  UNL1        0.1200
      4 C           7.6118   -6.0465   28.0836 C.ar    1  UNL1        0.0887
      5 C           7.8020   -5.5659   29.4917 C.ar    1  UNL1       -0.0042
      6 C           8.2863   -6.3910   30.6470 C.3     1  UNL1        0.0323
      7 C           7.5389   -1.4753   33.1841 C.ar    1  UNL1        0.1724
      8 C           8.8037   -1.7782   32.4367 C.ar    1  UNL1        0.0401
      9 C           8.7651   -2.6582   31.2226 C.ar    1  UNL1        0.0038
     10 C           7.4616   -3.2354   30.7559 C.ar    1  UNL1        0.0090
     11 C           6.1969   -2.9326   31.5032 C.ar    1  UNL1        0.0405
     12 C           6.2355   -2.0525   32.7173 C.ar    1  UNL1        0.1724
     13 C           8.8884   -0.2840   35.0574 C.3     1  UNL1        0.2526
     14 O           7.5776   -0.5953   34.3982 O.3     1  UNL1       -0.4684
     15 O           4.9706   -1.7497   33.4646 O.3     1  UNL1       -0.4684
     16 C           3.9557   -0.8163   32.8741 C.3     1  UNL1        0.2526
     17 N           6.7921   -4.9269   25.7989 N.2     1  UNL1       -0.2366
     18 C           6.5580   -3.6470   25.0527 C.2     1  UNL1        0.0994
     19 C           6.2348   -3.6809   23.5883 C.ar    1  UNL1        0.0192
     20 C           4.8403   -3.3854   23.1210 C.ar    1  UNL1        0.0028
     21 C           4.5171   -3.4193   21.6566 C.ar    1  UNL1        0.0146
     22 C           5.5883   -3.7487   20.6596 C.ar    1  UNL1        0.0479
     23 C           6.9827   -4.0442   21.1269 C.ar    1  UNL1        0.0146
     24 C           7.3059   -4.0103   22.5914 C.ar    1  UNL1        0.0028
     25 N           5.2651   -3.7827   19.1952 N.pl3   1  UNL1       -0.3047
     26 C           4.5277   -4.9539   18.6169 C.3     1  UNL1        0.1122
     27 C           5.6793   -2.6454   18.3092 C.3     1  UNL1        0.1070
     28 C           4.6606   -1.6475   17.8442 C.3     1  UNL1        0.1267
     29 C           3.5422   -1.2373   18.7557 C.1     1  UNL1        0.0750
     30 N           2.4238   -0.8271   19.6673 N.1     1  UNL1       -0.1958
     31 C           7.8725   -7.4364   27.5835 C.1     1  UNL1        0.1022
     32 N           8.1331   -8.8264   27.0835 N.1     1  UNL1       -0.1908
@<TRIPOS>BOND
     1    13    14    1
     2    14     7    1
     3     7     8   ar
     4     8     9   ar
     5     9    10   ar
     6    10     1    1
     7     1     2   ar
     8     2     3   ar
     9     3    17    1
    10    17    18    2
    11    18    19    1
    12    19    20   ar
    13    20    21   ar
    14    21    22   ar
    15    22    25    1
    16    25    26    1
    17    25    27    1
    18    27    28    1
    19    28    29    1
    20    29    30    3
    21    22    23   ar
    22    23    24   ar
    23     3     4   ar
    24     4    31    1
    25    31    32    3
    26     4     5   ar
    27     5     6    1
    28    10    11   ar
    29    11    12   ar
    30    12    15    1
    31    15    16    1
    32    12     7   ar
    33     5     1   ar
    34    24    19   ar
@<TRIPOS>MOLECULE
*****
 32 34 0 0 0
SMALL
GASTEIGER

@<TRIPOS>ATOM
      1 C           2.8286    0.0829   30.9569 C.ar    1  UNL1        0.0277
      2 S           2.0018    0.1602   29.7078 S.2     1  UNL1       -0.0677
      3 C           1.0350    1.2968   29.8613 C.ar    1  UNL1        0.1200
      4 C           1.2644    1.9220   31.2054 C.ar    1  UNL1        0.0887
      5 C           2.3728    1.1717   31.8825 C.ar    1  UNL1       -0.0042
      6 C           2.9280    1.4597   33.2459 C.3     1  UNL1        0.0323
      7 C           6.1014   -2.8931   31.7826 C.ar    1  UNL1        0.1724
      8 C           5.0143   -2.6744   32.7927 C.ar    1  UNL1        0.0401
      9 C           3.9233   -1.6824   32.5174 C.ar    1  UNL1        0.0038
     10 C           3.9195   -0.9091   31.2322 C.ar    1  UNL1        0.0090
     11 C           5.0067   -1.1278   30.2221 C.ar    1  UNL1        0.0405
     12 C           6.0976   -2.1198   30.4974 C.ar    1  UNL1        0.1724
     13 C           7.0569   -5.3006   31.5806 C.3     1  UNL1        0.2526
     14 O           7.1924   -3.8851   32.0579 O.3     1  UNL1       -0.4684
     15 O           7.1848   -2.3385   29.4872 O.3     1  UNL1       -0.4684
     16 C           6.9935   -3.3361   28.3835 C.3     1  UNL1        0.2526
     17 N           0.0177    1.7319   28.8486 N.2     1  UNL1       -0.2366
     18 C           0.4635    2.3124   27.5393 C.2     1  UNL1        0.0994
     19 C          -0.5539    2.7475   26.5266 C.ar    1  UNL1        0.0192
     20 C          -1.9349    3.1322   26.9684 C.ar    1  UNL1        0.0028
     21 C          -2.9523    3.5673   25.9557 C.ar    1  UNL1        0.0146
     22 C          -2.5888    3.6176   24.5012 C.ar    1  UNL1        0.0479
     23 C          -1.2079    3.2329   24.0595 C.ar    1  UNL1        0.0146
     24 C          -0.1904    2.7978   25.0723 C.ar    1  UNL1        0.0028
     25 N          -3.6062    4.0527   23.4885 N.pl3   1  UNL1       -0.3047
     26 C          -3.3568    5.2718   22.6509 C.3     1  UNL1        0.1122
     27 C          -4.8730    3.2687   23.3134 C.3     1  UNL1        0.1070
     28 C          -5.9830    3.8166   22.4665 C.3     1  UNL1        0.1267
     29 C          -7.2475    4.3031   23.1104 C.1     1  UNL1        0.0750
     30 N          -8.5119    4.7896   23.7543 N.1     1  UNL1       -0.1958
     31 C           0.5166    3.0920   31.7728 C.1     1  UNL1        0.1022
     32 N          -0.2312    4.2619   32.3402 N.1     1  UNL1       -0.1908
@<TRIPOS>BOND
     1    13    14    1
     2    14     7    1
     3     7     8   ar
     4     8     9   ar
     5     9    10   ar
     6    10     1    1
     7     1     2   ar
     8     2     3   ar
     9     3    17    1
    10    17    18    2
    11    18    19    1
    12    19    20   ar
    13    20    21   ar
    14    21    22   ar
    15    22    25    1
    16    25    26    1
    17    25    27    1
    18    27    28    1
    19    28    29    1
    20    29    30    3
    21    22    23   ar
    22    23    24   ar
    23     3     4   ar
    24     4    31    1
    25    31    32    3
    26     4     5   ar
    27     5     6    1
    28    10    11   ar
    29    11    12   ar
    30    12    15    1
    31    15    16    1
    32    12     7   ar
    33     5     1   ar
    34    24    19   ar
@<TRIPOS>MOLECULE
*****
 32 34 0 0 0
SMALL
GASTEIGER

@<TRIPOS>ATOM
      1 C           2.8653   -0.3327   20.9635 C.ar    1  UNL1        0.0277
      2 S           3.1091   -0.7265   22.3902 S.2     1  UNL1       -0.0677
      3 C           3.9212   -1.9876   22.3908 C.ar    1  UNL1        0.1200
      4 C           4.1793   -2.3734   20.9644 C.ar    1  UNL1        0.0887
      5 C           3.5267   -1.3506   20.0823 C.ar    1  UNL1       -0.0042
      6 C           3.5342   -1.3464   18.5823 C.3     1  UNL1        0.0323
      7 C           0.5552    3.2694   19.5714 C.ar    1  UNL1        0.1724
      8 C           2.0113    3.1369   19.2366 C.ar    1  UNL1        0.0401
      9 C           2.7814    1.9362   19.7007 C.ar    1  UNL1        0.0038
     10 C           2.0953    0.8680   20.4995 C.ar    1  UNL1        0.0090
     11 C           0.6392    1.0005   20.8343 C.ar    1  UNL1        0.0405
     12 C          -0.1309    2.2012   20.3702 C.ar    1  UNL1        0.1724
     13 C          -1.1188    4.3665   17.9149 C.3     1  UNL1        0.2526
     14 O          -0.2148    4.4702   19.1074 O.3     1  UNL1       -0.4684
     15 O          -1.5870    2.3337   20.7051 O.3     1  UNL1       -0.4684
     16 C          -2.0446    3.4031   21.6521 C.3     1  UNL1        0.2526
     17 N           4.3924   -2.7323   23.6046 N.2     1  UNL1       -0.2366
     18 C           5.8182   -2.6085   24.0538 C.2     1  UNL1        0.0994
     19 C           6.2895   -3.3532   25.2676 C.ar    1  UNL1        0.0192
     20 C           6.1557   -2.7328   26.6269 C.ar    1  UNL1        0.0028
     21 C           6.6270   -3.4775   27.8407 C.ar    1  UNL1        0.0146
     22 C           7.2319   -4.8424   27.6954 C.ar    1  UNL1        0.0479
     23 C           7.3656   -5.4627   26.3362 C.ar    1  UNL1        0.0146
     24 C           6.8944   -4.7180   25.1223 C.ar    1  UNL1        0.0028
     25 N           7.7031   -5.5871   28.9092 N.pl3   1  UNL1       -0.3047
     26 C           8.9681   -6.3911   28.8516 C.3     1  UNL1        0.1122
     27 C           6.9094   -5.5276   30.1807 C.3     1  UNL1        0.1070
     28 C           7.3929   -4.6913   31.3281 C.3     1  UNL1        0.1267
     29 C           6.4396   -3.7859   32.0503 C.1     1  UNL1        0.0750
     30 N           5.4862   -2.8806   32.7725 N.1     1  UNL1       -0.1958
     31 C           4.9540   -3.5715   20.5014 C.1     1  UNL1        0.1022
     32 N           5.7286   -4.7696   20.0383 N.1     1  UNL1       -0.1908
@<TRIPOS>BOND
     1    13    14    1
     2    14     7    1
     3     7     8   ar
     4     8     9   ar
     5     9    10   ar
     6    10     1    1
     7     1     2   ar
     8     2     3   ar
     9     3    17    1
    10    17    18    2
    11    18    19    1
    12    19    20   ar
    13    20    21   ar
    14    21    22   ar
    15    22    25    1
    16    25    26    1
    17    25    27    1
    18    27    28    1
    19    28    29    1
    20    29    30    3
    21    22    23   ar
    22    23    24   ar
    23     3     4   ar
    24     4    31    1
    25    31    32    3
    26     4     5   ar
    27     5     6    1
    28    10    11   ar
    29    11    12   ar
    30    12    15    1
    31    15    16    1
    32    12     7   ar
    33     5     1   ar
    34    24    19   ar
