@<TRIPOS>MOLECULE
*****
 35 38 0 0 0
SMALL
GASTEIGER

@<TRIPOS>ATOM
      1 N           5.7048   -1.8107   31.9213 N.pl3   1  UNL1       -0.3315
      2 H           6.3197   -1.1058   32.2282 H       1  UNL1        0.1469
      3 C           6.2437   -3.0255   31.2257 C.ar    1  UNL1        0.0477
      4 C           6.7305   -4.1954   32.0285 C.ar    1  UNL1        0.0144
      5 C           7.2694   -5.4101   31.3329 C.ar    1  UNL1        0.0028
      6 C           7.3215   -5.4550   29.8345 C.ar    1  UNL1        0.0193
      7 C           6.8347   -4.2852   29.0317 C.ar    1  UNL1        0.0855
      8 C           6.2958   -3.0705   29.7273 C.ar    1  UNL1        0.0517
      9 C           5.8906   -2.0773   28.6787 C.ar    1  UNL1        0.1232
     10 N           6.1791   -2.6783   27.3350 N.ar    1  UNL1       -0.1635
     11 N           6.7626   -4.0429   27.5531 N.ar    1  UNL1       -0.2296
     12 C           7.1975   -4.9975   26.4810 C.ar    1  UNL1        0.0829
     13 C           7.1504   -6.4761   26.7290 C.ar    1  UNL1        0.0215
     14 C           7.5853   -7.4307   25.6569 C.ar    1  UNL1        0.0312
     15 C           8.0675   -6.9067   24.3367 C.ar    1  UNL1        0.1402
     16 F           8.5025   -7.8614   23.2646 F       1  UNL1       -0.2042
     17 C           8.1147   -5.4282   24.0887 C.ar    1  UNL1        0.0312
     18 C           7.6797   -4.4735   25.1608 C.ar    1  UNL1        0.0215
     19 C           4.2289   -1.6700   32.1494 C.3     1  UNL1        0.1046
     20 C           3.4603   -0.5925   31.4435 C.3     1  UNL1        0.0950
     21 C           3.9895    0.8107   31.4154 C.3     1  UNL1        0.0206
     22 N           2.1624   -0.9183   30.7658 N.3     1  UNL1       -0.1791
     23 H           2.2509   -1.8664   30.4002 H       1  UNL1        0.1488
     24 S           1.6708   -0.0628   29.6360 S.O2    1  UNL1        0.0596
     25 O           2.3025   -1.0010   28.6507 O.2     1  UNL1       -0.1530
     26 O           1.0391    0.8753   30.6212 O.2     1  UNL1       -0.1530
     27 C          -0.2954    3.3593   25.1168 C.3     1  UNL1        0.0310
     28 C           0.1962    2.5038   26.2466 C.ar    1  UNL1       -0.0224
     29 C           1.5997    2.6621   26.7516 C.ar    1  UNL1       -0.0072
     30 C           2.0912    1.8066   27.8814 C.ar    1  UNL1       -0.0039
     31 C           3.4947    1.9650   28.3864 C.3     1  UNL1        0.0324
     32 C           1.1792    0.7927   28.5062 C.ar    1  UNL1        0.1140
     33 C          -0.2243    0.6343   28.0012 C.ar    1  UNL1       -0.0039
     34 C          -1.1362   -0.3795   28.6259 C.3     1  UNL1        0.0324
     35 C          -0.7158    1.4899   26.8713 C.ar    1  UNL1       -0.0072
@<TRIPOS>BOND
     1    27    28    1
     2    28    29   ar
     3    29    30   ar
     4    30    31    1
     5    30    32   ar
     6    32    24    1
     7    24    25    2
     8    24    26    2
     9    24    22    1
    10    22    20    1
    11    20    21    1
    12    20    19    1
    13    19     1    1
    14     1     3    1
    15     3     4   ar
    16     4     5   ar
    17     5     6   ar
    18     6     7   ar
    19     7     8   ar
    20     8     9   ar
    21     9    10   ar
    22    10    11   ar
    23    11    12    1
    24    12    13   ar
    25    13    14   ar
    26    14    15   ar
    27    15    16    1
    28    15    17   ar
    29    17    18   ar
    30    32    33   ar
    31    33    34    1
    32    33    35   ar
    33    35    28   ar
    34     8     3   ar
    35    18    12   ar
    36    11     7   ar
    37    22    23    1
    38     1     2    1
@<TRIPOS>MOLECULE
*****
 35 38 0 0 0
SMALL
GASTEIGER

@<TRIPOS>ATOM
      1 N           7.2060   -4.4008   26.1017 N.pl3   1  UNL1       -0.3315
      2 H           7.8670   -5.0832   26.3599 H       1  UNL1        0.1469
      3 C           6.8533   -3.2990   27.0566 C.ar    1  UNL1        0.0477
      4 C           6.6268   -1.9072   26.5452 C.ar    1  UNL1        0.0144
      5 C           6.2742   -0.8055   27.5001 C.ar    1  UNL1        0.0028
      6 C           6.1480   -1.0956   28.9664 C.ar    1  UNL1        0.0193
      7 C           6.3745   -2.4874   29.4778 C.ar    1  UNL1        0.0855
      8 C           6.7271   -3.5891   28.5229 C.ar    1  UNL1        0.0517
      9 C           6.8912   -4.8532   29.3137 C.ar    1  UNL1        0.1232
     10 N           6.6399   -4.5326   30.7573 N.ar    1  UNL1       -0.1635
     11 N           6.3206   -3.0705   30.8587 N.ar    1  UNL1       -0.2296
     12 C           6.0030   -2.3228   32.1197 C.ar    1  UNL1        0.0829
     13 C           4.6551   -2.4714   32.7606 C.ar    1  UNL1        0.0215
     14 C           4.3375   -1.7237   34.0216 C.ar    1  UNL1        0.0312
     15 C           5.3680   -0.8272   34.6417 C.ar    1  UNL1        0.1402
     16 F           5.0505   -0.0795   35.9026 F       1  UNL1       -0.2042
     17 C           6.7160   -0.6786   34.0007 C.ar    1  UNL1        0.0312
     18 C           7.0335   -1.4263   32.7398 C.ar    1  UNL1        0.0215
     19 C           6.5515   -4.4629   24.7535 C.3     1  UNL1        0.1046
     20 C           7.3528   -4.1811   23.5172 C.3     1  UNL1        0.0950
     21 C           8.7817   -3.7400   23.6338 C.3     1  UNL1        0.0206
     22 N           6.7251   -4.3403   22.1641 N.3     1  UNL1       -0.1791
     23 H           7.4638   -4.1895   21.4772 H       1  UNL1        0.1488
     24 S           5.5753   -3.4645   21.7629 S.O2    1  UNL1        0.0596
     25 O           6.5261   -2.3323   21.5100 O.2     1  UNL1       -0.1530
     26 O           4.6246   -4.5968   22.0158 O.2     1  UNL1       -0.1530
     27 C           0.9764    0.0389   20.1582 C.3     1  UNL1        0.0310
     28 C           2.1261   -0.8370   20.5594 C.ar    1  UNL1       -0.0224
     29 C           2.6104   -0.8354   21.9790 C.ar    1  UNL1       -0.0072
     30 C           3.7601   -1.7113   22.3802 C.ar    1  UNL1       -0.0039
     31 C           4.2443   -1.7097   23.7999 C.3     1  UNL1        0.0324
     32 C           4.4256   -2.5887   21.3617 C.ar    1  UNL1        0.1140
     33 C           3.9413   -2.5902   19.9420 C.ar    1  UNL1       -0.0039
     34 C           4.6068   -3.4676   18.9235 C.3     1  UNL1        0.0324
     35 C           2.7916   -1.7143   19.5409 C.ar    1  UNL1       -0.0072
@<TRIPOS>BOND
     1    27    28    1
     2    28    29   ar
     3    29    30   ar
     4    30    31    1
     5    30    32   ar
     6    32    24    1
     7    24    25    2
     8    24    26    2
     9    24    22    1
    10    22    20    1
    11    20    21    1
    12    20    19    1
    13    19     1    1
    14     1     3    1
    15     3     4   ar
    16     4     5   ar
    17     5     6   ar
    18     6     7   ar
    19     7     8   ar
    20     8     9   ar
    21     9    10   ar
    22    10    11   ar
    23    11    12    1
    24    12    13   ar
    25    13    14   ar
    26    14    15   ar
    27    15    16    1
    28    15    17   ar
    29    17    18   ar
    30    32    33   ar
    31    33    34    1
    32    33    35   ar
    33    35    28   ar
    34     8     3   ar
    35    18    12   ar
    36    11     7   ar
    37    22    23    1
    38     1     2    1
@<TRIPOS>MOLECULE
*****
 35 38 0 0 0
SMALL
GASTEIGER

@<TRIPOS>ATOM
      1 N           6.3274   -4.3582   25.5777 N.pl3   1  UNL1       -0.3315
      2 H           5.6420   -4.9254   25.1562 H       1  UNL1        0.1469
      3 C           6.5374   -4.4130   27.0619 C.ar    1  UNL1        0.0477
      4 C           7.1919   -5.6112   27.6830 C.ar    1  UNL1        0.0144
      5 C           7.4018   -5.6660   29.1672 C.ar    1  UNL1        0.0028
      6 C           6.9572   -4.5226   30.0303 C.ar    1  UNL1        0.0193
      7 C           6.3027   -3.3244   29.4092 C.ar    1  UNL1        0.0855
      8 C           6.0928   -3.2696   27.9250 C.ar    1  UNL1        0.0517
      9 C           5.4244   -1.9668   27.5992 C.ar    1  UNL1        0.1232
     10 N           5.2212   -1.2165   28.8820 N.ar    1  UNL1       -0.1635
     11 N           5.7640   -2.0556   30.0007 N.ar    1  UNL1       -0.2296
     12 C           5.7676   -1.6899   31.4554 C.ar    1  UNL1        0.0829
     13 C           6.9221   -0.9271   32.0342 C.ar    1  UNL1        0.0215
     14 C           6.9256   -0.5614   33.4890 C.ar    1  UNL1        0.0312
     15 C           5.7746   -0.9587   34.3650 C.ar    1  UNL1        0.1402
     16 F           5.7782   -0.5931   35.8197 F       1  UNL1       -0.2042
     17 C           4.6201   -1.7216   33.7862 C.ar    1  UNL1        0.0312
     18 C           4.6166   -2.0872   32.3314 C.ar    1  UNL1        0.0215
     19 C           7.1619   -3.4391   24.7356 C.3     1  UNL1        0.1046
     20 C           7.6132   -3.8734   23.3727 C.3     1  UNL1        0.0950
     21 C           9.0690   -3.8269   23.0145 C.3     1  UNL1        0.0206
     22 N           6.6085   -4.3542   22.3679 N.3     1  UNL1       -0.1791
     23 H           7.1268   -4.5833   21.5197 H       1  UNL1        0.1488
     24 S           5.4749   -3.4630   21.9552 S.O2    1  UNL1        0.0596
     25 O           6.4570   -2.4292   21.4898 O.2     1  UNL1       -0.1530
     26 O           4.4927   -4.4968   22.4205 O.2     1  UNL1       -0.1530
     27 C           0.9401    0.1022   20.3045 C.3     1  UNL1        0.0310
     28 C           2.0737   -0.7891   20.7172 C.ar    1  UNL1       -0.0224
     29 C           2.6106   -0.7207   22.1161 C.ar    1  UNL1       -0.0072
     30 C           3.7443   -1.6119   22.5288 C.ar    1  UNL1       -0.0039
     31 C           4.2812   -1.5435   23.9277 C.3     1  UNL1        0.0324
     32 C           4.3412   -2.5717   21.5425 C.ar    1  UNL1        0.1140
     33 C           3.8043   -2.6402   20.1436 C.ar    1  UNL1       -0.0039
     34 C           4.4010   -3.5999   19.1573 C.3     1  UNL1        0.0324
     35 C           2.6705   -1.7488   19.7309 C.ar    1  UNL1       -0.0072
@<TRIPOS>BOND
     1    27    28    1
     2    28    29   ar
     3    29    30   ar
     4    30    31    1
     5    30    32   ar
     6    32    24    1
     7    24    25    2
     8    24    26    2
     9    24    22    1
    10    22    20    1
    11    20    21    1
    12    20    19    1
    13    19     1    1
    14     1     3    1
    15     3     4   ar
    16     4     5   ar
    17     5     6   ar
    18     6     7   ar
    19     7     8   ar
    20     8     9   ar
    21     9    10   ar
    22    10    11   ar
    23    11    12    1
    24    12    13   ar
    25    13    14   ar
    26    14    15   ar
    27    15    16    1
    28    15    17   ar
    29    17    18   ar
    30    32    33   ar
    31    33    34    1
    32    33    35   ar
    33    35    28   ar
    34     8     3   ar
    35    18    12   ar
    36    11     7   ar
    37    22    23    1
    38     1     2    1
@<TRIPOS>MOLECULE
*****
 35 38 0 0 0
SMALL
GASTEIGER

@<TRIPOS>ATOM
      1 N           6.3392   -4.3776   25.6012 N.pl3   1  UNL1       -0.3315
      2 H           5.6617   -4.9532   25.1782 H       1  UNL1        0.1469
      3 C           6.5449   -4.4281   27.0862 C.ar    1  UNL1        0.0477
      4 C           7.2003   -5.6231   27.7124 C.ar    1  UNL1        0.0144
      5 C           7.4059   -5.6735   29.1973 C.ar    1  UNL1        0.0028
      6 C           6.9561   -4.5289   30.0561 C.ar    1  UNL1        0.0193
      7 C           6.3007   -3.3338   29.4299 C.ar    1  UNL1        0.0855
      8 C           6.0951   -3.2834   27.9449 C.ar    1  UNL1        0.0517
      9 C           5.4246   -1.9830   27.6137 C.ar    1  UNL1        0.1232
     10 N           5.2159   -1.2298   28.8939 N.ar    1  UNL1       -0.1635
     11 N           5.7574   -2.0647   30.0164 N.ar    1  UNL1       -0.2296
     12 C           5.7558   -1.6952   31.4702 C.ar    1  UNL1        0.0829
     13 C           6.9109   -0.9358   32.0524 C.ar    1  UNL1        0.0215
     14 C           6.9093   -0.5664   33.5061 C.ar    1  UNL1        0.0312
     15 C           5.7525   -0.9563   34.3778 C.ar    1  UNL1        0.1402
     16 F           5.7509   -0.5868   35.8316 F       1  UNL1       -0.2042
     17 C           4.5974   -1.7157   33.7957 C.ar    1  UNL1        0.0312
     18 C           4.5990   -2.0851   32.3419 C.ar    1  UNL1        0.0215
     19 C           7.1659   -3.4502   24.7606 C.3     1  UNL1        0.1046
     20 C           7.6021   -3.8698   23.3882 C.3     1  UNL1        0.0950
     21 C           9.0514   -3.8004   23.0079 C.3     1  UNL1        0.0206
     22 N           6.5889   -4.3590   22.3960 N.3     1  UNL1       -0.1791
     23 H           7.1015   -4.6069   21.5497 H       1  UNL1        0.1488
     24 S           5.4612   -3.4650   21.9730 S.O2    1  UNL1        0.0596
     25 O           4.4725   -4.5004   22.4206 O.2     1  UNL1       -0.1530
     26 O           6.4499   -2.4296   21.5254 O.2     1  UNL1       -0.1530
     27 C           0.9502    0.1109   20.2808 C.3     1  UNL1        0.0310
     28 C           2.0779   -0.7831   20.7039 C.ar    1  UNL1       -0.0224
     29 C           2.6825   -1.7431   19.7227 C.ar    1  UNL1       -0.0072
     30 C           3.8103   -2.6371   20.1457 C.ar    1  UNL1       -0.0039
     31 C           4.4149   -3.5971   19.1645 C.3     1  UNL1        0.0324
     32 C           4.3335   -2.5710   21.5500 C.ar    1  UNL1        0.1140
     33 C           3.7289   -1.6110   22.5312 C.ar    1  UNL1       -0.0039
     34 C           4.2520   -1.5449   23.9354 C.3     1  UNL1        0.0324
     35 C           2.6011   -0.7170   22.1081 C.ar    1  UNL1       -0.0072
@<TRIPOS>BOND
     1    27    28    1
     2    28    29   ar
     3    29    30   ar
     4    30    31    1
     5    30    32   ar
     6    32    24    1
     7    24    25    2
     8    24    26    2
     9    24    22    1
    10    22    20    1
    11    20    21    1
    12    20    19    1
    13    19     1    1
    14     1     3    1
    15     3     4   ar
    16     4     5   ar
    17     5     6   ar
    18     6     7   ar
    19     7     8   ar
    20     8     9   ar
    21     9    10   ar
    22    10    11   ar
    23    11    12    1
    24    12    13   ar
    25    13    14   ar
    26    14    15   ar
    27    15    16    1
    28    15    17   ar
    29    17    18   ar
    30    32    33   ar
    31    33    34    1
    32    33    35   ar
    33    35    28   ar
    34     8     3   ar
    35    18    12   ar
    36    11     7   ar
    37    22    23    1
    38     1     2    1
@<TRIPOS>MOLECULE
*****
 35 38 0 0 0
SMALL
GASTEIGER

@<TRIPOS>ATOM
      1 N         -10.5927  -20.0103   21.5808 N.pl3   1  UNL1       -0.3315
      2 H         -10.5762  -20.6972   22.2859 H       1  UNL1        0.1469
      3 C          -9.3985  -19.8171   20.6938 C.ar    1  UNL1        0.0477
      4 C          -9.5630  -19.8223   19.2029 C.ar    1  UNL1        0.0144
      5 C          -8.3688  -19.6291   18.3160 C.ar    1  UNL1        0.0028
      6 C          -7.0102  -19.4306   18.9201 C.ar    1  UNL1        0.0193
      7 C          -6.8458  -19.4254   20.4110 C.ar    1  UNL1        0.0855
      8 C          -8.0399  -19.6186   21.2979 C.ar    1  UNL1        0.0517
      9 C          -7.5727  -19.5665   22.7224 C.ar    1  UNL1        0.1232
     10 N          -6.0898  -19.3411   22.7158 N.ar    1  UNL1       -0.1635
     11 N          -5.6405  -19.2538   21.2873 N.ar    1  UNL1       -0.2296
     12 C          -4.2331  -19.0337   20.8175 C.ar    1  UNL1        0.0829
     13 C          -3.0843  -19.2760   21.7510 C.ar    1  UNL1        0.0215
     14 C          -1.6768  -19.0559   21.2812 C.ar    1  UNL1        0.0312
     15 C          -1.4182  -18.5935   19.8779 C.ar    1  UNL1        0.1402
     16 F          -0.0108  -18.3734   19.4081 F       1  UNL1       -0.2042
     17 C          -2.5670  -18.3512   18.9444 C.ar    1  UNL1        0.0312
     18 C          -3.9745  -18.5713   19.4142 C.ar    1  UNL1        0.0215
     19 C         -11.8120  -19.1569   21.3935 C.3     1  UNL1        0.1046
     20 C         -11.8938  -17.8112   22.0511 C.3     1  UNL1        0.0950
     21 C         -12.2858  -16.6065   21.2480 C.3     1  UNL1        0.0206
     22 N         -11.5836  -17.6702   23.5120 N.3     1  UNL1       -0.1791
     23 H         -12.2979  -17.0586   23.9070 H       1  UNL1        0.1488
     24 S         -10.2564  -17.1235   23.9475 S.O2    1  UNL1        0.0596
     25 O          -9.7302  -18.5202   24.0971 O.2     1  UNL1       -0.1530
     26 O         -10.7826  -15.7269   23.7979 O.2     1  UNL1       -0.1530
     27 C          -4.9477  -14.9368   25.6897 C.3     1  UNL1        0.0310
     28 C          -6.2749  -15.4835   25.2542 C.ar    1  UNL1       -0.0224
     29 C          -7.1997  -16.0992   26.2620 C.ar    1  UNL1       -0.0072
     30 C          -8.5268  -16.6459   25.8265 C.ar    1  UNL1       -0.0039
     31 C          -9.4516  -17.2615   26.8343 C.3     1  UNL1        0.0324
     32 C          -8.9293  -16.5769   24.3830 C.ar    1  UNL1        0.1140
     33 C          -8.0045  -15.9612   23.3752 C.ar    1  UNL1       -0.0039
     34 C          -8.4068  -15.8921   21.9319 C.3     1  UNL1        0.0324
     35 C          -6.6772  -15.4145   23.8108 C.ar    1  UNL1       -0.0072
@<TRIPOS>BOND
     1    27    28    1
     2    28    29   ar
     3    29    30   ar
     4    30    31    1
     5    30    32   ar
     6    32    24    1
     7    24    25    2
     8    24    26    2
     9    24    22    1
    10    22    20    1
    11    20    21    1
    12    20    19    1
    13    19     1    1
    14     1     3    1
    15     3     4   ar
    16     4     5   ar
    17     5     6   ar
    18     6     7   ar
    19     7     8   ar
    20     8     9   ar
    21     9    10   ar
    22    10    11   ar
    23    11    12    1
    24    12    13   ar
    25    13    14   ar
    26    14    15   ar
    27    15    16    1
    28    15    17   ar
    29    17    18   ar
    30    32    33   ar
    31    33    34    1
    32    33    35   ar
    33    35    28   ar
    34     8     3   ar
    35    18    12   ar
    36    11     7   ar
    37    22    23    1
    38     1     2    1
@<TRIPOS>MOLECULE
*****
 35 38 0 0 0
SMALL
GASTEIGER

@<TRIPOS>ATOM
      1 N           6.6881   -2.4142   20.2599 N.pl3   1  UNL1       -0.3315
      2 H           6.3876   -1.5822   20.6920 H       1  UNL1        0.1469
      3 C           7.5074   -3.4063   21.0311 C.ar    1  UNL1        0.0477
      4 C           8.7137   -4.0353   20.3992 C.ar    1  UNL1        0.0144
      5 C           9.5329   -5.0273   21.1704 C.ar    1  UNL1        0.0028
      6 C           9.1459   -5.3903   22.5735 C.ar    1  UNL1        0.0193
      7 C           7.9396   -4.7612   23.2053 C.ar    1  UNL1        0.0855
      8 C           7.1204   -3.7692   22.4341 C.ar    1  UNL1        0.0517
      9 C           5.9923   -3.3165   23.3131 C.ar    1  UNL1        0.1232
     10 N           6.1144   -4.0287   24.6276 N.ar    1  UNL1       -0.1635
     11 N           7.3179   -4.9216   24.5609 N.ar    1  UNL1       -0.2296
     12 C           7.8128   -5.8176   25.6574 C.ar    1  UNL1        0.0829
     13 C           8.3781   -5.2239   26.9135 C.ar    1  UNL1        0.0215
     14 C           8.8730   -6.1199   28.0100 C.ar    1  UNL1        0.0312
     15 C           8.8026   -7.6097   27.8503 C.ar    1  UNL1        0.1402
     16 F           9.2975   -8.5057   28.9468 F       1  UNL1       -0.2042
     17 C           8.2374   -8.2034   26.5942 C.ar    1  UNL1        0.0312
     18 C           7.7425   -7.3074   25.4978 C.ar    1  UNL1        0.0215
     19 C           6.3267   -2.6899   18.8304 C.3     1  UNL1        0.1046
     20 C           4.9971   -3.2988   18.4970 C.3     1  UNL1        0.0950
     21 C           4.7027   -4.7170   18.8869 C.3     1  UNL1        0.0206
     22 N           3.9617   -2.4895   17.7737 N.3     1  UNL1       -0.1791
     23 H           4.0415   -2.7257   16.7846 H       1  UNL1        0.1488
     24 S           3.9820   -0.9924   17.8644 S.O2    1  UNL1        0.0596
     25 O           3.9160   -0.9009   16.3687 O.2     1  UNL1       -0.1530
     26 O           4.0480   -1.0839   19.3601 O.2     1  UNL1       -0.1530
     27 C           4.0631    4.9960   18.2272 C.3     1  UNL1        0.0310
     28 C           4.0428    3.4990   18.1365 C.ar    1  UNL1       -0.0224
     29 C           2.7624    2.7511   18.3633 C.ar    1  UNL1       -0.0072
     30 C           2.7422    1.2540   18.2726 C.ar    1  UNL1       -0.0039
     31 C           1.4618    0.5061   18.4994 C.3     1  UNL1        0.0324
     32 C           4.0023    0.5047   17.9551 C.ar    1  UNL1        0.1140
     33 C           5.2826    1.2526   17.7283 C.ar    1  UNL1       -0.0039
     34 C           6.5427    0.5033   17.4108 C.3     1  UNL1        0.0324
     35 C           5.3028    2.7497   17.8190 C.ar    1  UNL1       -0.0072
@<TRIPOS>BOND
     1    27    28    1
     2    28    29   ar
     3    29    30   ar
     4    30    31    1
     5    30    32   ar
     6    32    24    1
     7    24    25    2
     8    24    26    2
     9    24    22    1
    10    22    20    1
    11    20    21    1
    12    20    19    1
    13    19     1    1
    14     1     3    1
    15     3     4   ar
    16     4     5   ar
    17     5     6   ar
    18     6     7   ar
    19     7     8   ar
    20     8     9   ar
    21     9    10   ar
    22    10    11   ar
    23    11    12    1
    24    12    13   ar
    25    13    14   ar
    26    14    15   ar
    27    15    16    1
    28    15    17   ar
    29    17    18   ar
    30    32    33   ar
    31    33    34    1
    32    33    35   ar
    33    35    28   ar
    34     8     3   ar
    35    18    12   ar
    36    11     7   ar
    37    22    23    1
    38     1     2    1
@<TRIPOS>MOLECULE
*****
 35 38 0 0 0
SMALL
GASTEIGER

@<TRIPOS>ATOM
      1 N           6.7840   -3.4575   20.0959 N.pl3   1  UNL1       -0.3315
      2 H           7.1203   -2.5774   19.8101 H       1  UNL1        0.1469
      3 C           7.3549   -4.1187   21.3153 C.ar    1  UNL1        0.0477
      4 C           8.4994   -5.0789   21.1814 C.ar    1  UNL1        0.0144
      5 C           9.0702   -5.7401   22.4008 C.ar    1  UNL1        0.0028
      6 C           8.4965   -5.4411   23.7541 C.ar    1  UNL1        0.0193
      7 C           7.3519   -4.4809   23.8880 C.ar    1  UNL1        0.0855
      8 C           6.7811   -3.8197   22.6686 C.ar    1  UNL1        0.0517
      9 C           5.6611   -2.9239   23.1084 C.ar    1  UNL1        0.1232
     10 N           5.5398   -3.0315   24.5996 N.ar    1  UNL1       -0.1635
     11 N           6.5848   -3.9938   25.0814 N.ar    1  UNL1       -0.2296
     12 C           6.8211   -4.3980   26.5065 C.ar    1  UNL1        0.0829
     13 C           7.0116   -5.8446   26.8540 C.ar    1  UNL1        0.0215
     14 C           7.2479   -6.2488   28.2791 C.ar    1  UNL1        0.0312
     15 C           7.2938   -5.2063   29.3566 C.ar    1  UNL1        0.1402
     16 F           7.5301   -5.6105   30.7817 F       1  UNL1       -0.2042
     17 C           7.1033   -3.7596   29.0090 C.ar    1  UNL1        0.0312
     18 C           6.8670   -3.3555   27.5840 C.ar    1  UNL1        0.0215
     19 C           5.7007   -4.1371   19.3119 C.3     1  UNL1        0.1046
     20 C           4.5998   -3.3262   18.6951 C.3     1  UNL1        0.0950
     21 C           3.2102   -3.3997   19.2550 C.3     1  UNL1        0.0206
     22 N           4.8886   -2.4419   17.5184 N.3     1  UNL1       -0.1791
     23 H           5.8595   -2.6100   17.2549 H       1  UNL1        0.1488
     24 S           4.7237   -0.9558   17.6387 S.O2    1  UNL1        0.0596
     25 O           4.0446   -0.9230   16.3017 O.2     1  UNL1       -0.1530
     26 O           5.4029   -0.9887   18.9757 O.2     1  UNL1       -0.1530
     27 C           4.0643    4.9883   18.1199 C.3     1  UNL1        0.0310
     28 C           4.2292    3.5023   17.9996 C.ar    1  UNL1       -0.0224
     29 C           5.4964    2.9315   17.4355 C.ar    1  UNL1       -0.0072
     30 C           5.6613    1.4455   17.3152 C.ar    1  UNL1       -0.0039
     31 C           6.9285    0.8747   16.7510 C.3     1  UNL1        0.0324
     32 C           4.5589    0.5302   17.7590 C.ar    1  UNL1        0.1140
     33 C           3.2916    1.1010   18.3232 C.ar    1  UNL1       -0.0039
     34 C           2.1892    0.1857   18.7670 C.3     1  UNL1        0.0324
     35 C           3.1268    2.5871   18.4435 C.ar    1  UNL1       -0.0072
@<TRIPOS>BOND
     1    27    28    1
     2    28    29   ar
     3    29    30   ar
     4    30    31    1
     5    30    32   ar
     6    32    24    1
     7    24    25    2
     8    24    26    2
     9    24    22    1
    10    22    20    1
    11    20    21    1
    12    20    19    1
    13    19     1    1
    14     1     3    1
    15     3     4   ar
    16     4     5   ar
    17     5     6   ar
    18     6     7   ar
    19     7     8   ar
    20     8     9   ar
    21     9    10   ar
    22    10    11   ar
    23    11    12    1
    24    12    13   ar
    25    13    14   ar
    26    14    15   ar
    27    15    16    1
    28    15    17   ar
    29    17    18   ar
    30    32    33   ar
    31    33    34    1
    32    33    35   ar
    33    35    28   ar
    34     8     3   ar
    35    18    12   ar
    36    11     7   ar
    37    22    23    1
    38     1     2    1
@<TRIPOS>MOLECULE
*****
 35 38 0 0 0
SMALL
GASTEIGER

@<TRIPOS>ATOM
      1 N           6.4924   -3.2417   20.9559 N.pl3   1  UNL1       -0.3315
      2 H           6.5969   -2.2718   20.8227 H       1  UNL1        0.1469
      3 C           6.9808   -3.8819   22.2215 C.ar    1  UNL1        0.0477
      4 C           7.9686   -5.0089   22.1591 C.ar    1  UNL1        0.0144
      5 C           8.4569   -5.6491   23.4247 C.ar    1  UNL1        0.0028
      6 C           7.9575   -5.1621   24.7526 C.ar    1  UNL1        0.0193
      7 C           6.9697   -4.0350   24.8150 C.ar    1  UNL1        0.0855
      8 C           6.4814   -3.3949   23.5494 C.ar    1  UNL1        0.0517
      9 C           5.5138   -2.3107   23.9217 C.ar    1  UNL1        0.1232
     10 N           5.4042   -2.2809   25.4174 N.ar    1  UNL1       -0.1635
     11 N           6.3040   -3.3466   25.9695 N.ar    1  UNL1       -0.2296
     12 C           6.5032   -3.6674   27.4211 C.ar    1  UNL1        0.0829
     13 C           6.7487   -2.5635   28.4065 C.ar    1  UNL1        0.0215
     14 C           6.9479   -2.8843   29.8582 C.ar    1  UNL1        0.0312
     15 C           6.9014   -4.3092   30.3246 C.ar    1  UNL1        0.1402
     16 F           7.1006   -4.6301   31.7762 F       1  UNL1       -0.2042
     17 C           6.6559   -5.4132   29.3392 C.ar    1  UNL1        0.0312
     18 C           6.4567   -5.0923   27.8876 C.ar    1  UNL1        0.0215
     19 C           5.8448   -4.0792   19.8933 C.3     1  UNL1        0.1046
     20 C           4.8297   -3.4694   18.9725 C.3     1  UNL1        0.0950
     21 C           3.3698   -3.7467   19.1765 C.3     1  UNL1        0.0206
     22 N           5.2746   -2.5821   17.8478 N.3     1  UNL1       -0.1791
     23 H           6.2871   -2.6829   17.7761 H       1  UNL1        0.1488
     24 S           4.9882   -1.1105   17.8952 S.O2    1  UNL1        0.0596
     25 O           5.7549   -1.0026   19.1799 O.2     1  UNL1       -0.1530
     26 O           4.2216   -1.2184   16.6104 O.2     1  UNL1       -0.1530
     27 C           3.8427    4.7760   18.0846 C.3     1  UNL1        0.0310
     28 C           4.1290    3.3044   18.0372 C.ar    1  UNL1       -0.0224
     29 C           3.1305    2.3280   18.5846 C.ar    1  UNL1       -0.0072
     30 C           3.4169    0.8564   18.5372 C.ar    1  UNL1       -0.0039
     31 C           2.4183   -0.1200   19.0845 C.3     1  UNL1        0.0324
     32 C           4.7019    0.3611   17.9425 C.ar    1  UNL1        0.1140
     33 C           5.7004    1.3375   17.3952 C.ar    1  UNL1       -0.0039
     34 C           6.9853    0.8423   16.8005 C.3     1  UNL1        0.0324
     35 C           5.4140    2.8092   17.4426 C.ar    1  UNL1       -0.0072
@<TRIPOS>BOND
     1    27    28    1
     2    28    29   ar
     3    29    30   ar
     4    30    31    1
     5    30    32   ar
     6    32    24    1
     7    24    25    2
     8    24    26    2
     9    24    22    1
    10    22    20    1
    11    20    21    1
    12    20    19    1
    13    19     1    1
    14     1     3    1
    15     3     4   ar
    16     4     5   ar
    17     5     6   ar
    18     6     7   ar
    19     7     8   ar
    20     8     9   ar
    21     9    10   ar
    22    10    11   ar
    23    11    12    1
    24    12    13   ar
    25    13    14   ar
    26    14    15   ar
    27    15    16    1
    28    15    17   ar
    29    17    18   ar
    30    32    33   ar
    31    33    34    1
    32    33    35   ar
    33    35    28   ar
    34     8     3   ar
    35    18    12   ar
    36    11     7   ar
    37    22    23    1
    38     1     2    1
@<TRIPOS>MOLECULE
*****
 35 38 0 0 0
SMALL
GASTEIGER

@<TRIPOS>ATOM
      1 N         -11.2128  -19.1863   20.6372 N.pl3   1  UNL1       -0.3315
      2 H         -12.1724  -19.2847   20.4401 H       1  UNL1        0.1469
      3 C         -10.7533  -18.9970   22.0525 C.ar    1  UNL1        0.0477
      4 C         -11.0771  -20.0301   23.0907 C.ar    1  UNL1        0.0144
      5 C         -10.6176  -19.8408   24.5059 C.ar    1  UNL1        0.0028
      6 C          -9.8343  -18.6183   24.8830 C.ar    1  UNL1        0.0193
      7 C          -9.5106  -17.5852   23.8448 C.ar    1  UNL1        0.0855
      8 C          -9.9701  -17.7746   22.4296 C.ar    1  UNL1        0.0517
      9 C          -9.5042  -16.5945   21.6291 C.ar    1  UNL1        0.1232
     10 N          -8.7568  -15.6760   22.5498 N.ar    1  UNL1       -0.1635
     11 N          -8.7608  -16.2882   23.9191 N.ar    1  UNL1       -0.2296
     12 C          -8.1262  -15.7058   25.1472 C.ar    1  UNL1        0.0829
     13 C          -8.9425  -15.5038   26.3893 C.ar    1  UNL1        0.0215
     14 C          -8.3080  -14.9214   27.6173 C.ar    1  UNL1        0.0312
     15 C          -6.8571  -14.5409   27.6033 C.ar    1  UNL1        0.1402
     16 F          -6.2226  -13.9584   28.8314 F       1  UNL1       -0.2042
     17 C          -6.0409  -14.7428   26.3612 C.ar    1  UNL1        0.0312
     18 C          -6.6754  -15.3253   25.1332 C.ar    1  UNL1        0.0215
     19 C         -10.2103  -19.2256   19.5221 C.3     1  UNL1        0.1046
     20 C          -8.9153  -19.9604   19.7034 C.3     1  UNL1        0.0950
     21 C          -8.3128  -20.7132   18.5543 C.3     1  UNL1        0.0206
     22 N          -8.2227  -19.9426   21.0339 N.3     1  UNL1       -0.1791
     23 H          -8.6920  -19.2362   21.6007 H       1  UNL1        0.1488
     24 S          -6.7530  -19.6528   21.1105 S.O2    1  UNL1        0.0596
     25 O          -6.9279  -18.5122   20.1522 O.2     1  UNL1       -0.1530
     26 O          -6.5781  -20.7935   22.0687 O.2     1  UNL1       -0.1530
     27 C          -0.8740  -18.4939   21.4169 C.3     1  UNL1        0.0310
     28 C          -2.3437  -18.7836   21.3403 C.ar    1  UNL1       -0.0224
     29 C          -3.3009  -18.0464   22.2294 C.ar    1  UNL1       -0.0072
     30 C          -4.7706  -18.3361   22.1528 C.ar    1  UNL1       -0.0039
     31 C          -5.7277  -17.5989   23.0418 C.3     1  UNL1        0.0324
     32 C          -5.2833  -19.3631   21.1871 C.ar    1  UNL1        0.1140
     33 C          -4.3261  -20.1003   20.2980 C.ar    1  UNL1       -0.0039
     34 C          -4.8387  -21.1273   19.3324 C.3     1  UNL1        0.0324
     35 C          -2.8563  -19.8106   20.3747 C.ar    1  UNL1       -0.0072
@<TRIPOS>BOND
     1    27    28    1
     2    28    29   ar
     3    29    30   ar
     4    30    31    1
     5    30    32   ar
     6    32    24    1
     7    24    25    2
     8    24    26    2
     9    24    22    1
    10    22    20    1
    11    20    21    1
    12    20    19    1
    13    19     1    1
    14     1     3    1
    15     3     4   ar
    16     4     5   ar
    17     5     6   ar
    18     6     7   ar
    19     7     8   ar
    20     8     9   ar
    21     9    10   ar
    22    10    11   ar
    23    11    12    1
    24    12    13   ar
    25    13    14   ar
    26    14    15   ar
    27    15    16    1
    28    15    17   ar
    29    17    18   ar
    30    32    33   ar
    31    33    34    1
    32    33    35   ar
    33    35    28   ar
    34     8     3   ar
    35    18    12   ar
    36    11     7   ar
    37    22    23    1
    38     1     2    1
