@<TRIPOS>MOLECULE
*****
 34 38 0 0 0
SMALL
GASTEIGER

@<TRIPOS>ATOM
      1 C          -0.8842    2.5783   21.0765 C.ar    1  UNL1        0.1043
      2 N          -2.3645    2.5797   20.8340 N.ar    1  UNL1       -0.2304
      3 C          -2.9852    3.5814   21.7620 C.ar    1  UNL1        0.1240
      4 N          -1.8886    4.1992   22.5780 N.ar    1  UNL1       -0.2885
      5 C          -1.9047    5.2461   23.6521 C.ar    1  UNL1        0.1020
      6 C          -0.6222    5.6730   24.3025 C.ar    1  UNL1        0.1193
      7 N           0.6763    5.0530   23.8788 N.ar    1  UNL1       -0.2265
      8 C           0.6923    4.0061   22.8047 C.ar    1  UNL1        0.1432
      9 N           1.9908    3.3861   22.3810 N.pl3   1  UNL1       -0.3414
     10 C          -0.5901    3.5792   22.1543 C.ar    1  UNL1        0.1142
     11 H           2.8326    3.6663   22.8079 H       1  UNL1        0.1438
     12 H           2.0014    2.6990   21.6760 H       1  UNL1        0.1438
     13 C          -4.4461    3.9081   21.8573 C.3     1  UNL1        0.0619
     14 C          -5.5014    4.3431   20.8840 C.3     1  UNL1        0.0345
     15 C          -6.5121    4.3702   21.9920 C.3     1  UNL1        0.0892
     16 C          -7.5229    4.3972   23.1000 C.3     1  UNL1        0.0293
     17 O          -7.5674    4.8052   21.0188 O.3     1  UNL1       -0.3867
     18 C          -5.4569    3.9352   22.9653 C.3     1  UNL1        0.0345
     19 H          -8.4111    4.9154   21.4845 H       1  UNL1        0.2102
     20 C           0.7842    2.2285   19.1158 C.ar    1  UNL1        0.1432
     21 C           1.7933    1.3759   18.4052 C.ar    1  UNL1        0.0744
     22 C           2.1429    0.0206   18.9445 C.ar    1  UNL1        0.1483
     23 C           1.4835   -0.4821   20.1945 C.ar    1  UNL1        0.0377
     24 C           0.4744    0.3705   20.9051 C.ar    1  UNL1        0.0077
     25 C           0.1248    1.7257   20.3659 C.ar    1  UNL1        0.0534
     26 C          -0.6002    3.7182   17.4990 C.3     1  UNL1        0.2525
     27 O           0.4346    3.5838   18.5765 O.3     1  UNL1       -0.4713
     28 O           3.1519   -0.8320   18.2339 O.3     1  UNL1       -0.4534
     29 C           3.9803   -1.8152   19.0066 C.ar    1  UNL1        0.1453
     30 C           5.2093   -1.3537   19.7322 C.ar    1  UNL1        0.0375
     31 C           6.0376   -2.3369   20.5049 C.ar    1  UNL1        0.0031
     32 C           5.6370   -3.7816   20.5520 C.ar    1  UNL1        0.0002
     33 C           4.4079   -4.2432   19.8264 C.ar    1  UNL1        0.0031
     34 C           3.5795   -3.2599   19.0536 C.ar    1  UNL1        0.0375
@<TRIPOS>BOND
     1    26    27    1
     2    27    20    1
     3    20    21   ar
     4    21    22   ar
     5    22    28    1
     6    28    29    1
     7    29    30   ar
     8    30    31   ar
     9    31    32   ar
    10    32    33   ar
    11    33    34   ar
    12    22    23   ar
    13    23    24   ar
    14    24    25   ar
    15    25     1    1
    16     1     2   ar
    17     2     3   ar
    18    13     3    1
    19    13    14    1
    20    14    15    1
    21    15    16    1
    22    15    17    1
    23    15    18    1
    24     3     4   ar
    25     4     5   ar
    26     5     6   ar
    27     6     7   ar
    28     7     8   ar
    29     8     9    1
    30     8    10   ar
    31    25    20   ar
    32    10     1   ar
    33    34    29   ar
    34    18    13    1
    35    10     4   ar
    36    17    19    1
    37     9    11    1
    38     9    12    1
@<TRIPOS>MOLECULE
*****
 34 38 0 0 0
SMALL
GASTEIGER

@<TRIPOS>ATOM
      1 C           5.8710   -1.9138   28.6264 C.ar    1  UNL1        0.1043
      2 N           5.8184   -1.0013   29.8157 N.ar    1  UNL1       -0.2304
      3 C           6.1832   -1.8019   31.0307 C.ar    1  UNL1        0.1240
      4 N           6.4612   -3.2092   30.5922 N.ar    1  UNL1       -0.2885
      5 C           6.8652   -4.4365   31.3540 C.ar    1  UNL1        0.1020
      6 C           7.0762   -5.7331   30.6299 C.ar    1  UNL1        0.1193
      7 N           6.8832   -5.8023   29.1439 N.ar    1  UNL1       -0.2265
      8 C           6.4793   -4.5749   28.3821 C.ar    1  UNL1        0.1432
      9 N           6.2864   -4.6441   26.8962 N.pl3   1  UNL1       -0.3414
     10 C           6.2683   -3.2784   29.1063 C.ar    1  UNL1        0.1142
     11 H           6.4249   -5.4951   26.4209 H       1  UNL1        0.1438
     12 H           6.0213   -3.8385   26.3962 H       1  UNL1        0.1438
     13 C           6.2569   -1.2858   32.4372 C.3     1  UNL1        0.0619
     14 C           7.3359   -0.6930   33.2942 C.3     1  UNL1        0.0345
     15 C           6.3614   -0.5559   34.4262 C.3     1  UNL1        0.0892
     16 C           5.3868   -0.4189   35.5583 C.3     1  UNL1        0.0293
     17 O           7.4403    0.0369   35.2833 O.3     1  UNL1       -0.3867
     18 C           5.2825   -1.1487   33.5692 C.3     1  UNL1        0.0345
     19 H           7.0787    0.2482   36.1582 H       1  UNL1        0.2102
     20 C           4.1572   -1.4042   26.7414 C.ar    1  UNL1        0.1432
     21 C           3.8640   -1.0197   25.3214 C.ar    1  UNL1        0.0744
     22 C           4.9914   -0.7604   24.3666 C.ar    1  UNL1        0.1483
     23 C           6.4120   -0.8855   24.8317 C.ar    1  UNL1        0.0377
     24 C           6.7051   -1.2700   26.2516 C.ar    1  UNL1        0.0077
     25 C           5.5779   -1.5294   27.2065 C.ar    1  UNL1        0.0534
     26 C           2.3906   -0.5220   28.4298 C.3     1  UNL1        0.2525
     27 O           3.0298   -1.6636   27.6962 O.3     1  UNL1       -0.4713
     28 O           4.6982   -0.3759   22.9466 O.3     1  UNL1       -0.4534
     29 C           4.3752   -1.4347   21.9343 C.ar    1  UNL1        0.1453
     30 C           3.4863   -1.1126   20.7698 C.ar    1  UNL1        0.0375
     31 C           3.1633   -2.1713   19.7575 C.ar    1  UNL1        0.0031
     32 C           3.7292   -3.5521   19.9098 C.ar    1  UNL1        0.0002
     33 C           4.6181   -3.8742   21.0744 C.ar    1  UNL1        0.0031
     34 C           4.9411   -2.8155   22.0867 C.ar    1  UNL1        0.0375
@<TRIPOS>BOND
     1    26    27    1
     2    27    20    1
     3    20    21   ar
     4    21    22   ar
     5    22    28    1
     6    28    29    1
     7    29    30   ar
     8    30    31   ar
     9    31    32   ar
    10    32    33   ar
    11    33    34   ar
    12    22    23   ar
    13    23    24   ar
    14    24    25   ar
    15    25     1    1
    16     1     2   ar
    17     2     3   ar
    18    13     3    1
    19    13    14    1
    20    14    15    1
    21    15    16    1
    22    15    17    1
    23    15    18    1
    24     3     4   ar
    25     4     5   ar
    26     5     6   ar
    27     6     7   ar
    28     7     8   ar
    29     8     9    1
    30     8    10   ar
    31    25    20   ar
    32    10     1   ar
    33    34    29   ar
    34    18    13    1
    35    10     4   ar
    36    17    19    1
    37     9    11    1
    38     9    12    1
@<TRIPOS>MOLECULE
*****
 34 38 0 0 0
SMALL
GASTEIGER

@<TRIPOS>ATOM
      1 C          -0.8114    2.9156   20.1145 C.ar    1  UNL1        0.1043
      2 N          -1.2325    2.8088   21.5502 N.ar    1  UNL1       -0.2304
      3 C          -2.5989    3.4142   21.6787 C.ar    1  UNL1        0.1240
      4 N          -3.0222    3.8953   20.3225 N.ar    1  UNL1       -0.2885
      5 C          -4.2709    4.5741   19.8429 C.ar    1  UNL1        0.1020
      6 C          -4.4148    4.9447   18.3966 C.ar    1  UNL1        0.1193
      7 N          -3.3101    4.6366   17.4299 N.ar    1  UNL1       -0.2265
      8 C          -2.0614    3.9578   17.9094 C.ar    1  UNL1        0.1432
      9 N          -0.9567    3.6496   16.9427 N.pl3   1  UNL1       -0.3414
     10 C          -1.9175    3.5871   19.3557 C.ar    1  UNL1        0.1142
     11 H          -1.0512    3.8929   15.9934 H       1  UNL1        0.1438
     12 H          -0.1371    3.2041   17.2574 H       1  UNL1        0.1438
     13 C          -3.4011    3.5201   22.9418 C.3     1  UNL1        0.0619
     14 C          -4.8471    3.3399   23.2981 C.3     1  UNL1        0.0345
     15 C          -4.5357    3.6698   24.7279 C.3     1  UNL1        0.0892
     16 C          -4.2244    3.9996   26.1577 C.3     1  UNL1        0.0293
     17 O          -5.9816    3.4896   25.0843 O.3     1  UNL1       -0.3867
     18 C          -3.0899    3.8499   24.3715 C.3     1  UNL1        0.0345
     19 H          -6.1034    3.6519   26.0329 H       1  UNL1        0.2102
     20 C           1.6356    3.3879   19.3801 C.ar    1  UNL1        0.1432
     21 C           2.9347    2.9076   18.8042 C.ar    1  UNL1        0.0744
     22 C           3.0860    1.4748   18.3870 C.ar    1  UNL1        0.1483
     23 C           1.9382    0.5223   18.5455 C.ar    1  UNL1        0.0377
     24 C           0.6391    1.0026   19.1214 C.ar    1  UNL1        0.0077
     25 C           0.4877    2.4353   19.5387 C.ar    1  UNL1        0.0534
     26 C           1.1358    5.8657   18.7792 C.3     1  UNL1        0.2525
     27 O           1.4843    4.8208   19.7974 O.3     1  UNL1       -0.4713
     28 O           4.3851    0.9945   17.8111 O.3     1  UNL1       -0.4534
     29 C           5.0410   -0.2361   18.3636 C.ar    1  UNL1        0.1453
     30 C           5.8457   -0.1543   19.6268 C.ar    1  UNL1        0.0375
     31 C           6.5016   -1.3849   20.1793 C.ar    1  UNL1        0.0031
     32 C           6.3528   -2.6975   19.4686 C.ar    1  UNL1        0.0002
     33 C           5.5481   -2.7793   18.2053 C.ar    1  UNL1        0.0031
     34 C           4.8922   -1.5487   17.6528 C.ar    1  UNL1        0.0375
@<TRIPOS>BOND
     1    26    27    1
     2    27    20    1
     3    20    21   ar
     4    21    22   ar
     5    22    28    1
     6    28    29    1
     7    29    30   ar
     8    30    31   ar
     9    31    32   ar
    10    32    33   ar
    11    33    34   ar
    12    22    23   ar
    13    23    24   ar
    14    24    25   ar
    15    25     1    1
    16     1     2   ar
    17     2     3   ar
    18    13     3    1
    19    13    14    1
    20    14    15    1
    21    15    16    1
    22    15    17    1
    23    15    18    1
    24     3     4   ar
    25     4     5   ar
    26     5     6   ar
    27     6     7   ar
    28     7     8   ar
    29     8     9    1
    30     8    10   ar
    31    25    20   ar
    32    10     1   ar
    33    34    29   ar
    34    18    13    1
    35    10     4   ar
    36    17    19    1
    37     9    11    1
    38     9    12    1
@<TRIPOS>MOLECULE
*****
 34 38 0 0 0
SMALL
GASTEIGER

@<TRIPOS>ATOM
      1 C          -1.1231    2.7355   20.6027 C.ar    1  UNL1        0.1043
      2 N          -2.2106    2.7941   21.6342 N.ar    1  UNL1       -0.2304
      3 C          -3.3256    3.6338   21.0851 C.ar    1  UNL1        0.1240
      4 N          -2.9272    4.0943   19.7142 N.ar    1  UNL1       -0.2885
      5 C          -3.6282    4.9474   18.6989 C.ar    1  UNL1        0.1020
      6 C          -2.9679    5.2453   17.3854 C.ar    1  UNL1        0.1193
      7 N          -1.6067    4.6901   17.0873 N.ar    1  UNL1       -0.2265
      8 C          -0.9058    3.8370   18.1026 C.ar    1  UNL1        0.1432
      9 N           0.4554    3.2818   17.8044 N.pl3   1  UNL1       -0.3414
     10 C          -1.5661    3.5391   19.4161 C.ar    1  UNL1        0.1142
     11 H           0.8888    3.4773   16.9424 H       1  UNL1        0.1438
     12 H           0.9155    2.7219   18.4708 H       1  UNL1        0.1438
     13 C          -4.6129    3.9565   21.7841 C.3     1  UNL1        0.0619
     14 C          -6.0280    4.1917   21.3455 C.3     1  UNL1        0.0345
     15 C          -6.4335    4.4129   22.7726 C.3     1  UNL1        0.0892
     16 C          -6.8391    4.6341   24.1997 C.3     1  UNL1        0.0293
     17 O          -7.8486    4.6480   22.3341 O.3     1  UNL1       -0.3867
     18 C          -5.0185    4.1778   23.2112 C.3     1  UNL1        0.0345
     19 H          -8.4009    4.8336   23.1096 H       1  UNL1        0.2102
     20 C           1.3945    2.7179   21.2444 C.ar    1  UNL1        0.1432
     21 C           2.6963    1.9845   21.3763 C.ar    1  UNL1        0.0744
     22 C           2.7824    0.5354   20.9984 C.ar    1  UNL1        0.1483
     23 C           1.5667   -0.1802   20.4887 C.ar    1  UNL1        0.0377
     24 C           0.2649    0.5531   20.3568 C.ar    1  UNL1        0.0077
     25 C           0.1787    2.0021   20.7346 C.ar    1  UNL1        0.0534
     26 C           1.7662    5.2217   20.6590 C.3     1  UNL1        0.2525
     27 O           1.3083    4.1670   21.6222 O.3     1  UNL1       -0.4713
     28 O           4.0843   -0.1979   21.1303 O.3     1  UNL1       -0.4534
     29 C           4.3166   -1.4594   20.3527 C.ar    1  UNL1        0.1453
     30 C           4.7879   -1.3876   18.9305 C.ar    1  UNL1        0.0375
     31 C           5.0203   -2.6491   18.1528 C.ar    1  UNL1        0.0031
     32 C           4.7813   -3.9823   18.7974 C.ar    1  UNL1        0.0002
     33 C           4.3099   -4.0540   20.2197 C.ar    1  UNL1        0.0031
     34 C           4.0776   -2.7926   20.9973 C.ar    1  UNL1        0.0375
@<TRIPOS>BOND
     1    26    27    1
     2    27    20    1
     3    20    21   ar
     4    21    22   ar
     5    22    28    1
     6    28    29    1
     7    29    30   ar
     8    30    31   ar
     9    31    32   ar
    10    32    33   ar
    11    33    34   ar
    12    22    23   ar
    13    23    24   ar
    14    24    25   ar
    15    25     1    1
    16     1     2   ar
    17     2     3   ar
    18    13     3    1
    19    13    14    1
    20    14    15    1
    21    15    16    1
    22    15    17    1
    23    15    18    1
    24     3     4   ar
    25     4     5   ar
    26     5     6   ar
    27     6     7   ar
    28     7     8   ar
    29     8     9    1
    30     8    10   ar
    31    25    20   ar
    32    10     1   ar
    33    34    29   ar
    34    18    13    1
    35    10     4   ar
    36    17    19    1
    37     9    11    1
    38     9    12    1
@<TRIPOS>MOLECULE
*****
 34 38 0 0 0
SMALL
GASTEIGER

@<TRIPOS>ATOM
      1 C           1.3640    2.1571   30.6983 C.ar    1  UNL1        0.1043
      2 N           1.2316    2.9806   31.9450 N.ar    1  UNL1       -0.2304
      3 C           2.0278    2.3140   33.0275 C.ar    1  UNL1        0.1240
      4 N           2.6523    1.0786   32.4498 N.ar    1  UNL1       -0.2885
      5 C           3.5415    0.0295   33.0486 C.ar    1  UNL1        0.1020
      6 C           4.0205   -1.1167   32.2079 C.ar    1  UNL1        0.1193
      7 N           3.6102   -1.2137   30.7683 N.ar    1  UNL1       -0.2265
      8 C           2.7210   -0.1645   30.1695 C.ar    1  UNL1        0.1432
      9 N           2.3108   -0.2615   28.7300 N.pl3   1  UNL1       -0.3414
     10 C           2.2421    0.9816   31.0103 C.ar    1  UNL1        0.1142
     11 H           2.6251   -1.0138   28.1782 H       1  UNL1        0.1438
     12 H           1.7271    0.4271   28.3370 H       1  UNL1        0.1438
     13 C           2.1739    2.7979   34.4398 C.3     1  UNL1        0.0619
     14 C           2.7997    2.2516   35.6888 C.3     1  UNL1        0.0345
     15 C           2.3805    3.4822   36.4371 C.3     1  UNL1        0.0892
     16 C           1.9613    4.7128   37.1853 C.3     1  UNL1        0.0293
     17 O           3.0063    2.9359   37.6861 O.3     1  UNL1       -0.3867
     18 C           1.7547    4.0285   35.1881 C.3     1  UNL1        0.0345
     19 H           2.8856    3.5685   38.4115 H       1  UNL1        0.2102
     20 C          -0.3330    1.5489   28.8274 C.ar    1  UNL1        0.1432
     21 C          -0.9673    1.8483   27.5014 C.ar    1  UNL1        0.0744
     22 C          -0.5388    3.0552   26.7205 C.ar    1  UNL1        0.1483
     23 C           0.5239    3.9627   27.2655 C.ar    1  UNL1        0.0377
     24 C           1.1581    3.6633   28.5915 C.ar    1  UNL1        0.0077
     25 C           0.7297    2.4565   29.3724 C.ar    1  UNL1        0.0534
     26 C          -1.4714   -0.7847   28.9181 C.3     1  UNL1        0.2525
     27 O          -0.7615    0.3420   29.6083 O.3     1  UNL1       -0.4713
     28 O          -1.1731    3.3545   25.3946 O.3     1  UNL1       -0.4534
     29 C          -2.6463    3.6245   25.3117 C.ar    1  UNL1        0.1453
     30 C          -3.3660    4.2239   26.4834 C.ar    1  UNL1        0.0375
     31 C          -4.8391    4.4938   26.4006 C.ar    1  UNL1        0.0031
     32 C          -5.5926    4.1644   25.1461 C.ar    1  UNL1        0.0002
     33 C          -4.8729    3.5650   23.9744 C.ar    1  UNL1        0.0031
     34 C          -3.3997    3.2950   24.0572 C.ar    1  UNL1        0.0375
@<TRIPOS>BOND
     1    26    27    1
     2    27    20    1
     3    20    21   ar
     4    21    22   ar
     5    22    28    1
     6    28    29    1
     7    29    30   ar
     8    30    31   ar
     9    31    32   ar
    10    32    33   ar
    11    33    34   ar
    12    22    23   ar
    13    23    24   ar
    14    24    25   ar
    15    25     1    1
    16     1     2   ar
    17     2     3   ar
    18    13     3    1
    19    13    14    1
    20    14    15    1
    21    15    16    1
    22    15    17    1
    23    15    18    1
    24     3     4   ar
    25     4     5   ar
    26     5     6   ar
    27     6     7   ar
    28     7     8   ar
    29     8     9    1
    30     8    10   ar
    31    25    20   ar
    32    10     1   ar
    33    34    29   ar
    34    18    13    1
    35    10     4   ar
    36    17    19    1
    37     9    11    1
    38     9    12    1
@<TRIPOS>MOLECULE
*****
 34 38 0 0 0
SMALL
GASTEIGER

@<TRIPOS>ATOM
      1 C           6.9821   -4.2400   25.0491 C.ar    1  UNL1        0.1043
      2 N           6.5553   -3.8032   26.4191 N.ar    1  UNL1       -0.2304
      3 C           7.1778   -4.7338   27.4173 C.ar    1  UNL1        0.1240
      4 N           7.9894   -5.7458   26.6641 N.ar    1  UNL1       -0.2885
      5 C           8.8230   -6.9058   27.1220 C.ar    1  UNL1        0.1020
      6 C           9.5355   -7.7605   26.1163 C.ar    1  UNL1        0.1193
      7 N           9.4146   -7.4553   24.6526 N.ar    1  UNL1       -0.2265
      8 C           8.5810   -6.2954   24.1947 C.ar    1  UNL1        0.1432
      9 N           8.4601   -5.9902   22.7311 N.pl3   1  UNL1       -0.3414
     10 C           7.8685   -5.4406   25.2005 C.ar    1  UNL1        0.1142
     11 H           8.9278   -6.5512   22.0710 H       1  UNL1        0.1438
     12 H           7.9130   -5.2289   22.4306 H       1  UNL1        0.1438
     13 C           7.0170   -4.6647   28.9070 C.3     1  UNL1        0.0619
     14 C           6.8801   -5.6752   30.0071 C.3     1  UNL1        0.0345
     15 C           6.7897   -4.5670   31.0139 C.3     1  UNL1        0.0892
     16 C           6.6992   -3.4587   32.0206 C.3     1  UNL1        0.0293
     17 O           6.6527   -5.5774   32.1140 O.3     1  UNL1       -0.3867
     18 C           6.9266   -3.5565   29.9138 C.3     1  UNL1        0.0345
     19 H           6.5681   -5.1195   32.9649 H       1  UNL1        0.2102
     20 C           7.4387   -2.4943   23.1798 C.ar    1  UNL1        0.1432
     21 C           7.0478   -1.8446   21.8855 C.ar    1  UNL1        0.0744
     22 C           5.8095   -2.2909   21.1663 C.ar    1  UNL1        0.1483
     23 C           4.9621   -3.3869   21.7413 C.ar    1  UNL1        0.0377
     24 C           5.3529   -4.0366   23.0355 C.ar    1  UNL1        0.0077
     25 C           6.5912   -3.5903   23.7548 C.ar    1  UNL1        0.0534
     26 C           9.2743   -0.7047   23.6014 C.3     1  UNL1        0.2525
     27 O           8.6771   -2.0480   23.8991 O.3     1  UNL1       -0.4713
     28 O           5.4186   -1.6412   19.8720 O.3     1  UNL1       -0.4534
     29 C           4.0489   -1.0508   19.7128 C.ar    1  UNL1        0.1453
     30 C           3.0336   -1.2061   20.8059 C.ar    1  UNL1        0.0375
     31 C           1.6639   -0.6158   20.6467 C.ar    1  UNL1        0.0031
     32 C           1.3095    0.1300   19.3944 C.ar    1  UNL1        0.0002
     33 C           2.3249    0.2853   18.3012 C.ar    1  UNL1        0.0031
     34 C           3.6946   -0.3051   18.4604 C.ar    1  UNL1        0.0375
@<TRIPOS>BOND
     1    26    27    1
     2    27    20    1
     3    20    21   ar
     4    21    22   ar
     5    22    28    1
     6    28    29    1
     7    29    30   ar
     8    30    31   ar
     9    31    32   ar
    10    32    33   ar
    11    33    34   ar
    12    22    23   ar
    13    23    24   ar
    14    24    25   ar
    15    25     1    1
    16     1     2   ar
    17     2     3   ar
    18    13     3    1
    19    13    14    1
    20    14    15    1
    21    15    16    1
    22    15    17    1
    23    15    18    1
    24     3     4   ar
    25     4     5   ar
    26     5     6   ar
    27     6     7   ar
    28     7     8   ar
    29     8     9    1
    30     8    10   ar
    31    25    20   ar
    32    10     1   ar
    33    34    29   ar
    34    18    13    1
    35    10     4   ar
    36    17    19    1
    37     9    11    1
    38     9    12    1
@<TRIPOS>MOLECULE
*****
 34 38 0 0 0
SMALL
GASTEIGER

@<TRIPOS>ATOM
      1 C           5.6182   -3.1734   22.6374 C.ar    1  UNL1        0.1043
      2 N           5.3871   -3.4442   24.0945 N.ar    1  UNL1       -0.2304
      3 C           6.5439   -4.2510   24.6052 C.ar    1  UNL1        0.1240
      4 N           7.4900   -4.4789   23.4637 N.ar    1  UNL1       -0.2885
      5 C           8.7985   -5.2068   23.3746 C.ar    1  UNL1        0.1020
      6 C           9.5349   -5.2687   22.0693 C.ar    1  UNL1        0.1193
      7 N           8.9628   -4.6027   20.8531 N.ar    1  UNL1       -0.2265
      8 C           7.6543   -3.8748   20.9422 C.ar    1  UNL1        0.1432
      9 N           7.0822   -3.2088   19.7260 N.pl3   1  UNL1       -0.3414
     10 C           6.9179   -3.8129   22.2475 C.ar    1  UNL1        0.1142
     11 H           7.5655   -3.2494   18.8693 H       1  UNL1        0.1438
     12 H           6.2234   -2.7310   19.7845 H       1  UNL1        0.1438
     13 C           6.7232   -4.7435   26.0107 C.3     1  UNL1        0.0619
     14 C           7.0345   -6.0701   26.6381 C.3     1  UNL1        0.0345
     15 C           6.9767   -5.4402   27.9983 C.3     1  UNL1        0.0892
     16 C           6.9190   -4.8103   29.3584 C.3     1  UNL1        0.0293
     17 O           7.2880   -6.7666   28.6257 O.3     1  UNL1       -0.3867
     18 C           6.6655   -4.1138   27.3708 C.3     1  UNL1        0.0345
     19 H           7.3199   -6.6685   29.5902 H       1  UNL1        0.2102
     20 C           4.0394   -3.0851   20.5759 C.ar    1  UNL1        0.1432
     21 C           3.1305   -2.3108   19.6680 C.ar    1  UNL1        0.0744
     22 C           2.8914   -0.8505   19.9136 C.ar    1  UNL1        0.1483
     23 C           3.5613   -0.1645   21.0671 C.ar    1  UNL1        0.0377
     24 C           4.4702   -0.9389   21.9751 C.ar    1  UNL1        0.0077
     25 C           4.7093   -2.3991   21.7295 C.ar    1  UNL1        0.0534
     26 C           4.2009   -5.0941   18.9364 C.3     1  UNL1        0.2525
     27 O           4.2785   -4.5454   20.3302 O.3     1  UNL1       -0.4713
     28 O           1.9825   -0.0762   19.0057 O.3     1  UNL1       -0.4534
     29 C           1.3383    1.1888   19.4903 C.ar    1  UNL1        0.1453
     30 C           0.1577    1.1232   20.4133 C.ar    1  UNL1        0.0375
     31 C          -0.4865    2.3881   20.8979 C.ar    1  UNL1        0.0031
     32 C           0.0498    3.7186   20.4596 C.ar    1  UNL1        0.0002
     33 C           1.2305    3.7842   19.5366 C.ar    1  UNL1        0.0031
     34 C           1.8747    2.5192   19.0519 C.ar    1  UNL1        0.0375
@<TRIPOS>BOND
     1    26    27    1
     2    27    20    1
     3    20    21   ar
     4    21    22   ar
     5    22    28    1
     6    28    29    1
     7    29    30   ar
     8    30    31   ar
     9    31    32   ar
    10    32    33   ar
    11    33    34   ar
    12    22    23   ar
    13    23    24   ar
    14    24    25   ar
    15    25     1    1
    16     1     2   ar
    17     2     3   ar
    18    13     3    1
    19    13    14    1
    20    14    15    1
    21    15    16    1
    22    15    17    1
    23    15    18    1
    24     3     4   ar
    25     4     5   ar
    26     5     6   ar
    27     6     7   ar
    28     7     8   ar
    29     8     9    1
    30     8    10   ar
    31    25    20   ar
    32    10     1   ar
    33    34    29   ar
    34    18    13    1
    35    10     4   ar
    36    17    19    1
    37     9    11    1
    38     9    12    1
@<TRIPOS>MOLECULE
*****
 34 38 0 0 0
SMALL
GASTEIGER

@<TRIPOS>ATOM
      1 C           5.3303   -2.7488   21.8486 C.ar    1  UNL1        0.1043
      2 N           5.4310   -3.7095   22.9961 N.ar    1  UNL1       -0.2304
      3 C           6.8375   -4.2286   23.0439 C.ar    1  UNL1        0.1240
      4 N           7.6061   -3.5887   21.9259 N.ar    1  UNL1       -0.2885
      5 C           9.0337   -3.7207   21.4851 C.ar    1  UNL1        0.1020
      6 C           9.5298   -2.9381   20.3056 C.ar    1  UNL1        0.1193
      7 N           8.5983   -2.0235   19.5668 N.ar    1  UNL1       -0.2265
      8 C           7.1706   -1.8915   20.0076 C.ar    1  UNL1        0.1432
      9 N           6.2391   -0.9769   19.2688 N.pl3   1  UNL1       -0.3414
     10 C           6.6745   -2.6741   21.1871 C.ar    1  UNL1        0.1142
     11 H           6.5647   -0.4633   18.4947 H       1  UNL1        0.1438
     12 H           5.3020   -0.8903   19.5582 H       1  UNL1        0.1438
     13 C           7.3803   -5.2145   24.0355 C.3     1  UNL1        0.0619
     14 C           7.3149   -5.3645   25.5267 C.3     1  UNL1        0.0345
     15 C           8.1478   -6.6088   25.4381 C.3     1  UNL1        0.0892
     16 C           8.9807   -7.8531   25.3495 C.3     1  UNL1        0.0293
     17 O           8.0824   -6.7587   26.9291 O.3     1  UNL1       -0.3867
     18 C           8.2132   -6.4588   23.9470 C.3     1  UNL1        0.0345
     19 H           8.5761   -7.5497   27.1965 H       1  UNL1        0.2102
     20 C           3.4483   -2.2901   20.1171 C.ar    1  UNL1        0.1432
     21 C           2.2191   -1.5363   19.7036 C.ar    1  UNL1        0.0744
     22 C           1.6428   -0.4875   20.6079 C.ar    1  UNL1        0.1483
     23 C           2.2956   -0.1925   21.9258 C.ar    1  UNL1        0.0377
     24 C           3.5247   -0.9463   22.3393 C.ar    1  UNL1        0.0077
     25 C           4.1011   -1.9950   21.4351 C.ar    1  UNL1        0.0534
     26 C           3.5351   -4.7541   19.2980 C.3     1  UNL1        0.2525
     27 O           4.0247   -3.3388   19.2127 O.3     1  UNL1       -0.4713
     28 O           0.4136    0.2662   20.1944 O.3     1  UNL1       -0.4534
     29 C           0.5193    1.7041   19.7806 C.ar    1  UNL1        0.1453
     30 C          -0.4488    2.7136   20.3225 C.ar    1  UNL1        0.0375
     31 C          -0.3431    4.1515   19.9087 C.ar    1  UNL1        0.0031
     32 C           0.7307    4.5799   18.9529 C.ar    1  UNL1        0.0002
     33 C           1.6989    3.5703   18.4110 C.ar    1  UNL1        0.0031
     34 C           1.5931    2.1324   18.8248 C.ar    1  UNL1        0.0375
@<TRIPOS>BOND
     1    26    27    1
     2    27    20    1
     3    20    21   ar
     4    21    22   ar
     5    22    28    1
     6    28    29    1
     7    29    30   ar
     8    30    31   ar
     9    31    32   ar
    10    32    33   ar
    11    33    34   ar
    12    22    23   ar
    13    23    24   ar
    14    24    25   ar
    15    25     1    1
    16     1     2   ar
    17     2     3   ar
    18    13     3    1
    19    13    14    1
    20    14    15    1
    21    15    16    1
    22    15    17    1
    23    15    18    1
    24     3     4   ar
    25     4     5   ar
    26     5     6   ar
    27     6     7   ar
    28     7     8   ar
    29     8     9    1
    30     8    10   ar
    31    25    20   ar
    32    10     1   ar
    33    34    29   ar
    34    18    13    1
    35    10     4   ar
    36    17    19    1
    37     9    11    1
    38     9    12    1
@<TRIPOS>MOLECULE
*****
 34 38 0 0 0
SMALL
GASTEIGER

@<TRIPOS>ATOM
      1 C           6.6627   -3.1493   25.5902 C.ar    1  UNL1        0.1043
      2 N           6.5508   -4.2589   26.5934 N.ar    1  UNL1       -0.2304
      3 C           7.3462   -3.8708   27.8044 C.ar    1  UNL1        0.1240
      4 N           7.9497   -2.5213   27.5498 N.ar    1  UNL1       -0.2885
      5 C           8.8293   -1.6410   28.3872 C.ar    1  UNL1        0.1020
      6 C           9.2864   -0.3148   27.8561 C.ar    1  UNL1        0.1193
      7 N           8.8639    0.1312   26.4877 N.ar    1  UNL1       -0.2265
      8 C           7.9843   -0.7492   25.6503 C.ar    1  UNL1        0.1432
      9 N           7.5619   -0.3032   24.2818 N.pl3   1  UNL1       -0.3414
     10 C           7.5272   -2.0754   26.1813 C.ar    1  UNL1        0.1142
     11 H           7.8619    0.5672   23.9333 H       1  UNL1        0.1438
     12 H           6.9846   -0.8810   23.7322 H       1  UNL1        0.1438
     13 C           7.5096   -4.6886   29.0512 C.3     1  UNL1        0.0619
     14 C           6.6325   -5.0269   30.2203 C.3     1  UNL1        0.0345
     15 C           7.7404   -5.8450   30.8146 C.3     1  UNL1        0.0892
     16 C           8.8483   -6.6632   31.4089 C.3     1  UNL1        0.0293
     17 O           6.8635   -6.1834   31.9836 O.3     1  UNL1       -0.3867
     18 C           8.6174   -5.5067   29.6456 C.3     1  UNL1        0.0345
     19 H           7.3499   -6.7551   32.5979 H       1  UNL1        0.2102
     20 C           4.7393   -2.3699   24.0271 C.ar    1  UNL1        0.1432
     21 C           4.0990   -2.3394   22.6710 C.ar    1  UNL1        0.0744
     22 C           4.7418   -3.0579   21.5218 C.ar    1  UNL1        0.1483
     23 C           6.0248   -3.8069   21.7288 C.ar    1  UNL1        0.0377
     24 C           6.6651   -3.8373   23.0849 C.ar    1  UNL1        0.0077
     25 C           6.0224   -3.1188   24.2341 C.ar    1  UNL1        0.0534
     26 C           3.8640   -0.1715   25.1000 C.3     1  UNL1        0.2525
     27 O           4.0965   -1.6513   25.1763 O.3     1  UNL1       -0.4713
     28 O           4.1015   -3.0275   20.1657 O.3     1  UNL1       -0.4534
     29 C           3.5517   -1.7411   19.6246 C.ar    1  UNL1        0.1453
     30 C           2.1738   -1.2925   20.0122 C.ar    1  UNL1        0.0375
     31 C           1.6240   -0.0061   19.4711 C.ar    1  UNL1        0.0031
     32 C           2.4520    0.8317   18.5423 C.ar    1  UNL1        0.0002
     33 C           3.8299    0.3831   18.1547 C.ar    1  UNL1        0.0031
     34 C           4.3798   -0.9033   18.6958 C.ar    1  UNL1        0.0375
@<TRIPOS>BOND
     1    26    27    1
     2    27    20    1
     3    20    21   ar
     4    21    22   ar
     5    22    28    1
     6    28    29    1
     7    29    30   ar
     8    30    31   ar
     9    31    32   ar
    10    32    33   ar
    11    33    34   ar
    12    22    23   ar
    13    23    24   ar
    14    24    25   ar
    15    25     1    1
    16     1     2   ar
    17     2     3   ar
    18    13     3    1
    19    13    14    1
    20    14    15    1
    21    15    16    1
    22    15    17    1
    23    15    18    1
    24     3     4   ar
    25     4     5   ar
    26     5     6   ar
    27     6     7   ar
    28     7     8   ar
    29     8     9    1
    30     8    10   ar
    31    25    20   ar
    32    10     1   ar
    33    34    29   ar
    34    18    13    1
    35    10     4   ar
    36    17    19    1
    37     9    11    1
    38     9    12    1
