@<TRIPOS>MOLECULE
*****
 37 40 0 0 0
SMALL
GASTEIGER

@<TRIPOS>ATOM
      1 C           7.1222    1.9772   17.5750 C.3     1  UNL1        0.0530
      2 C           5.6483    2.0249   17.8498 C.ar    1  UNL1        0.0711
      3 N           4.9470    3.3468   17.9528 N.ar    1  UNL1       -0.2471
      4 C           3.4731    3.3946   18.2277 C.ar    1  UNL1        0.1020
      5 C           2.7718    4.7165   18.3307 C.ar    1  UNL1        0.0518
      6 C           1.2980    4.7641   18.6055 C.ar    1  UNL1        0.1593
      7 F           0.5966    6.0861   18.7085 F       1  UNL1       -0.2025
      8 C           0.5255    3.4899   18.7774 C.ar    1  UNL1        0.1117
      9 N           1.2269    2.1680   18.6744 N.ar    1  UNL1       -0.2402
     10 C           2.7007    2.1203   18.3996 C.ar    1  UNL1        0.1128
     11 C           3.4021    0.7983   18.2966 C.ar    1  UNL1        0.0760
     12 C           4.8759    0.7507   18.0217 C.ar    1  UNL1        0.0857
     13 CL          5.5773   -0.5713   17.9187 Cl      1  UNL1       -0.0797
     14 C          -0.9483    3.5376   19.0523 C.ar    1  UNL1        0.0582
     15 C          -1.4861    3.0164   20.3519 C.ar    1  UNL1        0.1034
     16 N          -2.9600    3.0641   20.6268 N.ar    1  UNL1       -0.2268
     17 C          -3.8960    3.6330   19.6020 C.ar    1  UNL1        0.1630
     18 N          -3.3581    4.1542   18.3023 N.ar    1  UNL1       -0.2268
     19 C          -1.8843    4.1065   18.0275 C.ar    1  UNL1        0.1034
     20 C          -5.3698    3.6807   19.8768 C.3     1  UNL1        0.1399
     21 C          -5.6433    3.7250   18.4026 C.3     1  UNL1        0.0371
     22 C          -5.0964    3.6365   21.3510 C.3     1  UNL1        0.0371
     23 O          -6.8436    3.7285   20.1516 O.3     1  UNL1       -0.3796
     24 H          -7.3280    3.7657   19.3120 H       1  UNL1        0.2108
     25 N           2.6296   -0.4759   18.4685 N.pl3   1  UNL1       -0.3286
     26 H           2.3960   -1.0199   17.6818 H       1  UNL1        0.1471
     27 C           2.2130   -0.9214   19.8388 C.3     1  UNL1        0.0942
     28 C           0.8712   -0.5258   20.3805 C.3     1  UNL1        0.0262
     29 C           3.1380   -1.7625   20.6676 C.ar    1  UNL1        0.0236
     30 C           3.3883   -1.4095   22.1039 C.ar    1  UNL1        0.0098
     31 C           4.3134   -2.2506   22.9327 C.ar    1  UNL1        0.0683
     32 C           4.9882   -3.4446   22.3251 C.ar    1  UNL1        0.0126
     33 C           4.7379   -3.7975   20.8889 C.ar    1  UNL1        0.0301
     34 C           3.8128   -2.9564   20.0602 C.ar    1  UNL1        0.1377
     35 F           3.5625   -3.3094   18.6239 F       1  UNL1       -0.2044
     36 C           4.5637   -1.8976   24.3689 C.1     1  UNL1        0.1004
     37 N           4.8139   -1.5447   25.8051 N.1     1  UNL1       -0.1908
@<TRIPOS>BOND
     1     1     2    1
     2     2     3   ar
     3     3     4   ar
     4     4     5   ar
     5     5     6   ar
     6     6     7    1
     7     6     8   ar
     8     8    14    1
     9    14    15   ar
    10    15    16   ar
    11    16    17   ar
    12    17    20    1
    13    20    21    1
    14    20    22    1
    15    20    23    1
    16    17    18   ar
    17    18    19   ar
    18     8     9   ar
    19     9    10   ar
    20    10    11   ar
    21    11    25    1
    22    25    27    1
    23    27    28    1
    24    27    29    1
    25    29    30   ar
    26    30    31   ar
    27    31    36    1
    28    36    37    3
    29    31    32   ar
    30    32    33   ar
    31    33    34   ar
    32    34    35    1
    33    11    12   ar
    34    12    13    1
    35    12     2   ar
    36    10     4   ar
    37    34    29   ar
    38    19    14   ar
    39    23    24    1
    40    25    26    1
@<TRIPOS>MOLECULE
*****
 37 40 0 0 0
SMALL
GASTEIGER

@<TRIPOS>ATOM
      1 C           3.1331   -0.7682   20.2175 C.3     1  UNL1        0.0530
      2 C           3.3313   -0.9400   21.6944 C.ar    1  UNL1        0.0711
      3 N           2.7506    0.0595   22.6503 N.ar    1  UNL1       -0.2471
      4 C           2.9488   -0.1123   24.1273 C.ar    1  UNL1        0.1020
      5 C           2.3680    0.8871   25.0832 C.ar    1  UNL1        0.0518
      6 C           2.5662    0.7153   26.5600 C.ar    1  UNL1        0.1593
      7 F           1.9855    1.7148   27.5160 F       1  UNL1       -0.2025
      8 C           3.3452   -0.4560   27.0810 C.ar    1  UNL1        0.1117
      9 N           3.9259   -1.4554   26.1251 N.ar    1  UNL1       -0.2402
     10 C           3.7277   -1.2836   24.6482 C.ar    1  UNL1        0.1128
     11 C           4.3085   -2.2831   23.6922 C.ar    1  UNL1        0.0760
     12 C           4.1103   -2.1112   22.2154 C.ar    1  UNL1        0.0857
     13 CL          4.6910   -3.1107   21.2594 Cl      1  UNL1       -0.0797
     14 C           3.5434   -0.6278   28.5579 C.ar    1  UNL1        0.0582
     15 C           2.3615   -0.6017   29.4813 C.ar    1  UNL1        0.1034
     16 N           2.5597   -0.7735   30.9582 N.ar    1  UNL1       -0.2268
     17 C           3.9398   -0.9714   31.5117 C.ar    1  UNL1        0.1630
     18 N           5.1216   -0.9974   30.5883 N.ar    1  UNL1       -0.2268
     19 C           4.9234   -0.8256   29.1115 C.ar    1  UNL1        0.1034
     20 C           4.1380   -1.1432   32.9886 C.3     1  UNL1        0.1399
     21 C           4.7171   -2.5065   32.7523 C.3     1  UNL1        0.0371
     22 C           3.5588    0.2202   33.2249 C.3     1  UNL1        0.0371
     23 O           4.3362   -1.3149   34.4654 O.3     1  UNL1       -0.3796
     24 H           4.7320   -2.1832   34.6397 H       1  UNL1        0.2108
     25 N           5.0874   -3.4543   24.2132 N.pl3   1  UNL1       -0.3286
     26 H           4.6146   -4.2354   24.5814 H       1  UNL1        0.1471
     27 C           6.5867   -3.4356   24.1730 C.3     1  UNL1        0.0942
     28 C           7.3239   -2.1343   24.2884 C.3     1  UNL1        0.0262
     29 C           7.3489   -4.7181   24.0175 C.ar    1  UNL1        0.0236
     30 C           7.3432   -5.7327   25.1224 C.ar    1  UNL1        0.0098
     31 C           8.1054   -7.0152   24.9669 C.ar    1  UNL1        0.0683
     32 C           8.8733   -7.2832   23.7065 C.ar    1  UNL1        0.0126
     33 C           8.8790   -6.2686   22.6017 C.ar    1  UNL1        0.0301
     34 C           8.1168   -4.9861   22.7572 C.ar    1  UNL1        0.1377
     35 F           8.1226   -3.9715   21.6523 F       1  UNL1       -0.2044
     36 C           8.0997   -8.0298   26.0717 C.1     1  UNL1        0.1004
     37 N           8.0939   -9.0443   27.1765 N.1     1  UNL1       -0.1908
@<TRIPOS>BOND
     1     1     2    1
     2     2     3   ar
     3     3     4   ar
     4     4     5   ar
     5     5     6   ar
     6     6     7    1
     7     6     8   ar
     8     8    14    1
     9    14    15   ar
    10    15    16   ar
    11    16    17   ar
    12    17    20    1
    13    20    21    1
    14    20    22    1
    15    20    23    1
    16    17    18   ar
    17    18    19   ar
    18     8     9   ar
    19     9    10   ar
    20    10    11   ar
    21    11    25    1
    22    25    27    1
    23    27    28    1
    24    27    29    1
    25    29    30   ar
    26    30    31   ar
    27    31    36    1
    28    36    37    3
    29    31    32   ar
    30    32    33   ar
    31    33    34   ar
    32    34    35    1
    33    11    12   ar
    34    12    13    1
    35    12     2   ar
    36    10     4   ar
    37    34    29   ar
    38    19    14   ar
    39    23    24    1
    40    25    26    1
@<TRIPOS>MOLECULE
*****
 37 40 0 0 0
SMALL
GASTEIGER

@<TRIPOS>ATOM
      1 C          -0.2482    3.7035   25.3404 C.3     1  UNL1        0.0530
      2 C           0.7487    2.6922   24.8570 C.ar    1  UNL1        0.0711
      3 N           1.3887    1.7460   25.8291 N.ar    1  UNL1       -0.2471
      4 C           2.3856    0.7347   25.3458 C.ar    1  UNL1        0.1020
      5 C           3.0256   -0.2115   26.3179 C.ar    1  UNL1        0.0518
      6 C           4.0225   -1.2227   25.8345 C.ar    1  UNL1        0.1593
      7 F           4.6625   -2.1690   26.8067 F       1  UNL1       -0.2025
      8 C           4.3794   -1.2877   24.3791 C.ar    1  UNL1        0.1117
      9 N           3.7394   -0.3415   23.4070 N.ar    1  UNL1       -0.2402
     10 C           2.7425    0.6697   23.8903 C.ar    1  UNL1        0.1128
     11 C           2.1025    1.6160   22.9182 C.ar    1  UNL1        0.0760
     12 C           1.1056    2.6272   23.4015 C.ar    1  UNL1        0.0857
     13 CL          0.4656    3.5735   22.4294 Cl      1  UNL1       -0.0797
     14 C           5.3763   -2.2990   23.8957 C.ar    1  UNL1        0.0582
     15 C           4.9946   -3.2748   22.8224 C.ar    1  UNL1        0.1034
     16 N           5.9915   -4.2861   22.3391 N.ar    1  UNL1       -0.2268
     17 C           7.3701   -4.3214   22.9291 C.ar    1  UNL1        0.1630
     18 N           7.7518   -3.3455   24.0024 N.ar    1  UNL1       -0.2268
     19 C           6.7549   -2.3343   24.4857 C.ar    1  UNL1        0.1034
     20 C           8.3671   -5.3326   22.4458 C.3     1  UNL1        0.1399
     21 C           8.3321   -6.0072   23.7851 C.3     1  UNL1        0.0371
     22 C           8.4020   -4.6581   21.1065 C.3     1  UNL1        0.0371
     23 O           9.3640   -6.3438   21.9625 O.3     1  UNL1       -0.3796
     24 H           9.5575   -6.9731   22.6749 H       1  UNL1        0.2108
     25 N           2.4594    1.5510   21.4627 N.pl3   1  UNL1       -0.3286
     26 H           3.1071    2.1895   21.0857 H       1  UNL1        0.1471
     27 C           1.8295    0.5133   20.5816 C.3     1  UNL1        0.0942
     28 C           0.3456    0.2971   20.6203 C.3     1  UNL1        0.0262
     29 C           2.6834   -0.3082   19.6619 C.ar    1  UNL1        0.0236
     30 C           2.8903   -1.7686   19.9352 C.ar    1  UNL1        0.0098
     31 C           3.7442   -2.5901   19.0155 C.ar    1  UNL1        0.0683
     32 C           4.3913   -1.9513   17.8224 C.ar    1  UNL1        0.0126
     33 C           4.1844   -0.4910   17.5492 C.ar    1  UNL1        0.0301
     34 C           3.3305    0.3306   18.4689 C.ar    1  UNL1        0.1377
     35 F           3.1236    1.7909   18.1956 F       1  UNL1       -0.2044
     36 C           3.9511   -4.0504   19.2887 C.1     1  UNL1        0.1004
     37 N           4.1579   -5.5107   19.5620 N.1     1  UNL1       -0.1908
@<TRIPOS>BOND
     1     1     2    1
     2     2     3   ar
     3     3     4   ar
     4     4     5   ar
     5     5     6   ar
     6     6     7    1
     7     6     8   ar
     8     8    14    1
     9    14    15   ar
    10    15    16   ar
    11    16    17   ar
    12    17    20    1
    13    20    21    1
    14    20    22    1
    15    20    23    1
    16    17    18   ar
    17    18    19   ar
    18     8     9   ar
    19     9    10   ar
    20    10    11   ar
    21    11    25    1
    22    25    27    1
    23    27    28    1
    24    27    29    1
    25    29    30   ar
    26    30    31   ar
    27    31    36    1
    28    36    37    3
    29    31    32   ar
    30    32    33   ar
    31    33    34   ar
    32    34    35    1
    33    11    12   ar
    34    12    13    1
    35    12     2   ar
    36    10     4   ar
    37    34    29   ar
    38    19    14   ar
    39    23    24    1
    40    25    26    1
@<TRIPOS>MOLECULE
*****
 37 40 0 0 0
SMALL
GASTEIGER

@<TRIPOS>ATOM
      1 C           5.8865   -1.8155   31.7041 C.3     1  UNL1        0.0530
      2 C           5.8591   -1.9982   30.2155 C.ar    1  UNL1        0.0711
      3 N           4.8441   -1.2662   29.3886 N.ar    1  UNL1       -0.2471
      4 C           4.8166   -1.4489   27.9000 C.ar    1  UNL1        0.1020
      5 C           3.8016   -0.7169   27.0731 C.ar    1  UNL1        0.0518
      6 C           3.7742   -0.8997   25.5845 C.ar    1  UNL1        0.1593
      7 F           2.7592   -0.1676   24.7575 F       1  UNL1       -0.2025
      8 C           4.7619   -1.8144   24.9229 C.ar    1  UNL1        0.1117
      9 N           5.7769   -2.5464   25.7498 N.ar    1  UNL1       -0.2402
     10 C           5.8043   -2.3637   27.2383 C.ar    1  UNL1        0.1128
     11 C           6.8194   -3.0957   28.0653 C.ar    1  UNL1        0.0760
     12 C           6.8467   -2.9130   29.5539 C.ar    1  UNL1        0.0857
     13 CL          7.8618   -3.6450   30.3809 Cl      1  UNL1       -0.0797
     14 C           4.7345   -1.9971   23.4343 C.ar    1  UNL1        0.0582
     15 C           4.7541   -0.7997   22.5312 C.ar    1  UNL1        0.1034
     16 N           4.7267   -0.9824   21.0425 N.ar    1  UNL1       -0.2268
     17 C           4.6796   -2.3626   20.4571 C.ar    1  UNL1        0.1630
     18 N           4.6600   -3.5601   21.3603 N.ar    1  UNL1       -0.2268
     19 C           4.6874   -3.3774   22.8488 C.ar    1  UNL1        0.1034
     20 C           4.6522   -2.5454   18.9685 C.3     1  UNL1        0.1399
     21 C           5.7595   -1.5437   18.8252 C.3     1  UNL1        0.0371
     22 C           3.5450   -3.5471   19.1119 C.3     1  UNL1        0.0371
     23 O           4.6248   -2.7282   17.4800 O.3     1  UNL1       -0.3796
     24 H           5.2940   -2.1568   17.0717 H       1  UNL1        0.2108
     25 N           7.8070   -4.0105   27.4037 N.pl3   1  UNL1       -0.3286
     26 H           8.7544   -3.7500   27.3417 H       1  UNL1        0.1471
     27 C           7.3512   -5.3222   26.8365 C.3     1  UNL1        0.0942
     28 C           6.3206   -6.1355   27.5621 C.3     1  UNL1        0.0262
     29 C           7.9261   -5.8206   25.5438 C.ar    1  UNL1        0.0236
     30 C           7.7891   -4.9993   24.2960 C.ar    1  UNL1        0.0098
     31 C           8.3639   -5.4978   23.0033 C.ar    1  UNL1        0.0683
     32 C           9.0757   -6.8174   22.9583 C.ar    1  UNL1        0.0126
     33 C           9.2126   -7.6386   24.2061 C.ar    1  UNL1        0.0301
     34 C           8.6378   -7.1402   25.4988 C.ar    1  UNL1        0.1377
     35 F           8.7748   -7.9614   26.7466 F       1  UNL1       -0.2044
     36 C           8.2270   -4.6766   21.7555 C.1     1  UNL1        0.1004
     37 N           8.0901   -3.8554   20.5078 N.1     1  UNL1       -0.1908
@<TRIPOS>BOND
     1     1     2    1
     2     2     3   ar
     3     3     4   ar
     4     4     5   ar
     5     5     6   ar
     6     6     7    1
     7     6     8   ar
     8     8    14    1
     9    14    15   ar
    10    15    16   ar
    11    16    17   ar
    12    17    20    1
    13    20    21    1
    14    20    22    1
    15    20    23    1
    16    17    18   ar
    17    18    19   ar
    18     8     9   ar
    19     9    10   ar
    20    10    11   ar
    21    11    25    1
    22    25    27    1
    23    27    28    1
    24    27    29    1
    25    29    30   ar
    26    30    31   ar
    27    31    36    1
    28    36    37    3
    29    31    32   ar
    30    32    33   ar
    31    33    34   ar
    32    34    35    1
    33    11    12   ar
    34    12    13    1
    35    12     2   ar
    36    10     4   ar
    37    34    29   ar
    38    19    14   ar
    39    23    24    1
    40    25    26    1
@<TRIPOS>MOLECULE
*****
 37 40 0 0 0
SMALL
GASTEIGER

@<TRIPOS>ATOM
      1 C           6.1146   -0.9832   26.9948 C.3     1  UNL1        0.0530
      2 C           5.5172   -0.6710   28.3348 C.ar    1  UNL1        0.0711
      3 N           6.3882   -0.1588   29.4434 N.ar    1  UNL1       -0.2471
      4 C           5.7908    0.1534   30.7834 C.ar    1  UNL1        0.1020
      5 C           6.6618    0.6656   31.8920 C.ar    1  UNL1        0.0518
      6 C           6.0643    0.9778   33.2319 C.ar    1  UNL1        0.1593
      7 F           6.9354    1.4900   34.3406 F       1  UNL1       -0.2025
      8 C           4.5959    0.7776   33.4634 C.ar    1  UNL1        0.1117
      9 N           3.7249    0.2654   32.3549 N.ar    1  UNL1       -0.2402
     10 C           4.3223   -0.0468   31.0149 C.ar    1  UNL1        0.1128
     11 C           3.4513   -0.5590   29.9063 C.ar    1  UNL1        0.0760
     12 C           4.0487   -0.8712   28.5663 C.ar    1  UNL1        0.0857
     13 CL          3.1777   -1.3835   27.4577 Cl      1  UNL1       -0.0797
     14 C           3.9985    1.0898   34.8035 C.ar    1  UNL1        0.0582
     15 C           2.9207    2.1264   34.9211 C.ar    1  UNL1        0.1034
     16 N           2.3233    2.4386   36.2611 N.ar    1  UNL1       -0.2268
     17 C           2.8037    1.7141   37.4836 C.ar    1  UNL1        0.1630
     18 N           3.8815    0.6774   37.3659 N.ar    1  UNL1       -0.2268
     19 C           4.4788    0.3653   36.0259 C.ar    1  UNL1        0.1034
     20 C           2.2063    2.0262   38.8236 C.3     1  UNL1        0.1399
     21 C           1.6596    0.6317   38.9046 C.3     1  UNL1        0.0371
     22 C           2.7530    3.4206   38.7425 C.3     1  UNL1        0.0371
     23 O           1.6089    2.3383   40.1636 O.3     1  UNL1       -0.3796
     24 H           1.1468    1.5554   40.5019 H       1  UNL1        0.2108
     25 N           1.9828   -0.7592   30.1377 N.pl3   1  UNL1       -0.3286
     26 H           1.6672   -1.5354   30.6546 H       1  UNL1        0.1471
     27 C           0.9952    0.2233   29.5817 C.3     1  UNL1        0.0942
     28 C          -0.1904   -0.2643   28.8027 C.3     1  UNL1        0.0262
     29 C           1.1930    1.6934   29.8045 C.ar    1  UNL1        0.0236
     30 C           0.9388    2.2877   31.1581 C.ar    1  UNL1        0.0098
     31 C           1.1366    3.7578   31.3809 C.ar    1  UNL1        0.0683
     32 C           1.5888    4.6336   30.2501 C.ar    1  UNL1        0.0126
     33 C           1.8430    4.0393   28.8966 C.ar    1  UNL1        0.0301
     34 C           1.6451    2.5692   28.6738 C.ar    1  UNL1        0.1377
     35 F           1.8994    1.9748   27.3201 F       1  UNL1       -0.2044
     36 C           0.8824    4.3522   32.7344 C.1     1  UNL1        0.1004
     37 N           0.6281    4.9465   34.0879 N.1     1  UNL1       -0.1908
@<TRIPOS>BOND
     1     1     2    1
     2     2     3   ar
     3     3     4   ar
     4     4     5   ar
     5     5     6   ar
     6     6     7    1
     7     6     8   ar
     8     8    14    1
     9    14    15   ar
    10    15    16   ar
    11    16    17   ar
    12    17    20    1
    13    20    21    1
    14    20    22    1
    15    20    23    1
    16    17    18   ar
    17    18    19   ar
    18     8     9   ar
    19     9    10   ar
    20    10    11   ar
    21    11    25    1
    22    25    27    1
    23    27    28    1
    24    27    29    1
    25    29    30   ar
    26    30    31   ar
    27    31    36    1
    28    36    37    3
    29    31    32   ar
    30    32    33   ar
    31    33    34   ar
    32    34    35    1
    33    11    12   ar
    34    12    13    1
    35    12     2   ar
    36    10     4   ar
    37    34    29   ar
    38    19    14   ar
    39    23    24    1
    40    25    26    1
@<TRIPOS>MOLECULE
*****
 37 40 0 0 0
SMALL
GASTEIGER

@<TRIPOS>ATOM
      1 C           6.7067    2.3146   17.4476 C.3     1  UNL1        0.0530
      2 C           6.7578    1.0977   18.3231 C.ar    1  UNL1        0.0711
      3 N           7.6181    1.0934   19.5518 N.ar    1  UNL1       -0.2471
      4 C           7.6693   -0.1235   20.4274 C.ar    1  UNL1        0.1020
      5 C           8.5296   -0.1278   21.6561 C.ar    1  UNL1        0.0518
      6 C           8.5808   -1.3446   22.5316 C.ar    1  UNL1        0.1593
      7 F           9.4411   -1.3489   23.7604 F       1  UNL1       -0.2025
      8 C           7.7716   -2.5573   22.1784 C.ar    1  UNL1        0.1117
      9 N           6.9113   -2.5530   20.9497 N.ar    1  UNL1       -0.2402
     10 C           6.8601   -1.3361   20.0742 C.ar    1  UNL1        0.1128
     11 C           5.9998   -1.3318   18.8454 C.ar    1  UNL1        0.0760
     12 C           5.9486   -0.1149   17.9699 C.ar    1  UNL1        0.0857
     13 CL          5.0883   -0.1106   16.7411 Cl      1  UNL1       -0.0797
     14 C           7.8227   -3.7742   23.0540 C.ar    1  UNL1        0.0582
     15 C           7.3189   -3.7046   24.4651 C.ar    1  UNL1        0.1034
     16 N           7.3700   -4.9215   25.3406 N.ar    1  UNL1       -0.2268
     17 C           7.9251   -6.2080   24.8050 C.ar    1  UNL1        0.1630
     18 N           8.4290   -6.2776   23.3939 N.ar    1  UNL1       -0.2268
     19 C           8.3778   -5.0607   22.5184 C.ar    1  UNL1        0.1034
     20 C           7.9763   -7.4249   25.6805 C.3     1  UNL1        0.1399
     21 C           9.1032   -7.9713   24.8551 C.3     1  UNL1        0.0371
     22 C           6.8493   -6.8784   26.5059 C.3     1  UNL1        0.0371
     23 O           8.0275   -8.6418   26.5560 O.3     1  UNL1       -0.3796
     24 H           8.7256   -9.2372   26.2415 H       1  UNL1        0.2108
     25 N           5.1906   -2.5444   18.4922 N.pl3   1  UNL1       -0.3286
     26 H           5.5196   -3.1745   17.8109 H       1  UNL1        0.1471
     27 C           3.8802   -2.7972   19.1769 C.3     1  UNL1        0.0942
     28 C           3.2836   -4.1735   19.1703 C.3     1  UNL1        0.0262
     29 C           3.1662   -1.6736   19.8682 C.ar    1  UNL1        0.0236
     30 C           2.4237   -0.6487   19.0629 C.ar    1  UNL1        0.0098
     31 C           1.7097    0.4748   19.7543 C.ar    1  UNL1        0.0683
     32 C           1.7382    0.5734   21.2508 C.ar    1  UNL1        0.0126
     33 C           2.4806   -0.4515   22.0559 C.ar    1  UNL1        0.0301
     34 C           3.1946   -1.5750   21.3646 C.ar    1  UNL1        0.1377
     35 F           3.9371   -2.6000   22.1699 F       1  UNL1       -0.2044
     36 C           0.9673    1.4997   18.9491 C.1     1  UNL1        0.1004
     37 N           0.2249    2.5247   18.1440 N.1     1  UNL1       -0.1908
@<TRIPOS>BOND
     1     1     2    1
     2     2     3   ar
     3     3     4   ar
     4     4     5   ar
     5     5     6   ar
     6     6     7    1
     7     6     8   ar
     8     8    14    1
     9    14    15   ar
    10    15    16   ar
    11    16    17   ar
    12    17    20    1
    13    20    21    1
    14    20    22    1
    15    20    23    1
    16    17    18   ar
    17    18    19   ar
    18     8     9   ar
    19     9    10   ar
    20    10    11   ar
    21    11    25    1
    22    25    27    1
    23    27    28    1
    24    27    29    1
    25    29    30   ar
    26    30    31   ar
    27    31    36    1
    28    36    37    3
    29    31    32   ar
    30    32    33   ar
    31    33    34   ar
    32    34    35    1
    33    11    12   ar
    34    12    13    1
    35    12     2   ar
    36    10     4   ar
    37    34    29   ar
    38    19    14   ar
    39    23    24    1
    40    25    26    1
@<TRIPOS>MOLECULE
*****
 37 40 0 0 0
SMALL
GASTEIGER

@<TRIPOS>ATOM
      1 C           5.4770   -2.9670   18.2819 C.3     1  UNL1        0.0530
      2 C           5.5104   -3.0310   19.7802 C.ar    1  UNL1        0.0711
      3 N           6.5752   -3.8283   20.4733 N.ar    1  UNL1       -0.2471
      4 C           6.6085   -3.8923   21.9716 C.ar    1  UNL1        0.1020
      5 C           7.6734   -4.6896   22.6647 C.ar    1  UNL1        0.0518
      6 C           7.7067   -4.7536   24.1630 C.ar    1  UNL1        0.1593
      7 F           8.7716   -5.5509   24.8562 F       1  UNL1       -0.2025
      8 C           6.6751   -4.0204   24.9681 C.ar    1  UNL1        0.1117
      9 N           5.6102   -3.2231   24.2750 N.ar    1  UNL1       -0.2402
     10 C           5.5770   -3.1591   22.7768 C.ar    1  UNL1        0.1128
     11 C           4.5121   -2.3618   22.0836 C.ar    1  UNL1        0.0760
     12 C           4.4788   -2.2978   20.5854 C.ar    1  UNL1        0.0857
     13 CL          3.4139   -1.5005   19.8922 Cl      1  UNL1       -0.0797
     14 C           6.7084   -4.0844   26.4664 C.ar    1  UNL1        0.0582
     15 C           6.4170   -5.3775   27.1685 C.ar    1  UNL1        0.1034
     16 N           6.4503   -5.4416   28.6668 N.ar    1  UNL1       -0.2268
     17 C           6.7751   -4.2125   29.4630 C.ar    1  UNL1        0.1630
     18 N           7.0665   -2.9193   28.7608 N.ar    1  UNL1       -0.2268
     19 C           7.0332   -2.8553   27.2626 C.ar    1  UNL1        0.1034
     20 C           6.8084   -4.2765   30.9612 C.3     1  UNL1        0.1399
     21 C           6.2629   -2.8810   31.0329 C.3     1  UNL1        0.0371
     22 C           7.3538   -5.6719   30.8895 C.3     1  UNL1        0.0371
     23 O           6.8417   -4.3405   32.4594 O.3     1  UNL1       -0.3796
     24 H           6.5163   -3.5035   32.8261 H       1  UNL1        0.2108
     25 N           3.4805   -1.6286   22.8887 N.pl3   1  UNL1       -0.3286
     26 H           2.7276   -2.1206   23.2892 H       1  UNL1        0.1471
     27 C           3.5960   -0.1459   23.0837 C.3     1  UNL1        0.0942
     28 C           4.9437    0.5120   23.0523 C.3     1  UNL1        0.0262
     29 C           2.3639    0.6791   23.3101 C.ar    1  UNL1        0.0236
     30 C           1.6731    0.6458   24.6413 C.ar    1  UNL1        0.0098
     31 C           0.4410    1.4707   24.8677 C.ar    1  UNL1        0.0683
     32 C          -0.1004    2.3290   23.7630 C.ar    1  UNL1        0.0126
     33 C           0.5903    2.3623   22.4319 C.ar    1  UNL1        0.0301
     34 C           1.8224    1.5373   22.2055 C.ar    1  UNL1        0.1377
     35 F           2.5132    1.5706   20.8744 F       1  UNL1       -0.2044
     36 C          -0.2497    1.4375   26.1988 C.1     1  UNL1        0.1004
     37 N          -0.9405    1.4042   27.5298 N.1     1  UNL1       -0.1908
@<TRIPOS>BOND
     1     1     2    1
     2     2     3   ar
     3     3     4   ar
     4     4     5   ar
     5     5     6   ar
     6     6     7    1
     7     6     8   ar
     8     8    14    1
     9    14    15   ar
    10    15    16   ar
    11    16    17   ar
    12    17    20    1
    13    20    21    1
    14    20    22    1
    15    20    23    1
    16    17    18   ar
    17    18    19   ar
    18     8     9   ar
    19     9    10   ar
    20    10    11   ar
    21    11    25    1
    22    25    27    1
    23    27    28    1
    24    27    29    1
    25    29    30   ar
    26    30    31   ar
    27    31    36    1
    28    36    37    3
    29    31    32   ar
    30    32    33   ar
    31    33    34   ar
    32    34    35    1
    33    11    12   ar
    34    12    13    1
    35    12     2   ar
    36    10     4   ar
    37    34    29   ar
    38    19    14   ar
    39    23    24    1
    40    25    26    1
@<TRIPOS>MOLECULE
*****
 37 40 0 0 0
SMALL
GASTEIGER

@<TRIPOS>ATOM
      1 C           4.9116    1.2279   24.3946 C.3     1  UNL1        0.0530
      2 C           3.5824    1.4475   23.7350 C.ar    1  UNL1        0.0711
      3 N           2.7246    2.6079   24.1444 N.ar    1  UNL1       -0.2471
      4 C           1.3954    2.8276   23.4848 C.ar    1  UNL1        0.1020
      5 C           0.5376    3.9880   23.8942 C.ar    1  UNL1        0.0518
      6 C          -0.7915    4.2076   23.2346 C.ar    1  UNL1        0.1593
      7 F          -1.6493    5.3681   23.6439 F       1  UNL1       -0.2025
      8 C          -1.2629    3.2668   22.1656 C.ar    1  UNL1        0.1117
      9 N          -0.4051    2.1064   21.7562 N.ar    1  UNL1       -0.2402
     10 C           0.9240    1.8868   22.4158 C.ar    1  UNL1        0.1128
     11 C           1.7819    0.7263   22.0064 C.ar    1  UNL1        0.0760
     12 C           3.1110    0.5067   22.6660 C.ar    1  UNL1        0.0857
     13 CL          3.9689   -0.6537   22.2567 Cl      1  UNL1       -0.0797
     14 C          -2.5921    3.4865   21.5060 C.ar    1  UNL1        0.0582
     15 C          -2.6721    3.6548   20.0176 C.ar    1  UNL1        0.1034
     16 N          -4.0013    3.8744   19.3580 N.ar    1  UNL1       -0.2268
     17 C          -5.2505    3.9258   20.1869 C.ar    1  UNL1        0.1630
     18 N          -5.1704    3.7575   21.6753 N.ar    1  UNL1       -0.2268
     19 C          -3.8412    3.5379   22.3348 C.ar    1  UNL1        0.1034
     20 C          -6.5796    4.1455   19.5273 C.3     1  UNL1        0.1399
     21 C          -6.9270    5.1682   20.5681 C.3     1  UNL1        0.0371
     22 C          -6.2322    3.1227   18.4866 C.3     1  UNL1        0.0371
     23 O          -7.9088    4.3651   18.8678 O.3     1  UNL1       -0.3796
     24 H          -8.4071    5.0361   19.3602 H       1  UNL1        0.2108
     25 N           1.3105   -0.2144   20.9375 N.pl3   1  UNL1       -0.3286
     26 H           0.6997   -0.9521   21.1653 H       1  UNL1        0.1471
     27 C           1.7698   -0.0313   19.5213 C.3     1  UNL1        0.0942
     28 C           0.9892    0.8450   18.5870 C.3     1  UNL1        0.0262
     29 C           3.0097   -0.7244   19.0394 C.ar    1  UNL1        0.0236
     30 C           3.1637   -2.2043   19.2297 C.ar    1  UNL1        0.0098
     31 C           4.4036   -2.8974   18.7477 C.ar    1  UNL1        0.0683
     32 C           5.4895   -2.1106   18.0756 C.ar    1  UNL1        0.0126
     33 C           5.3355   -0.6307   17.8854 C.ar    1  UNL1        0.0301
     34 C           4.0956    0.0624   18.3673 C.ar    1  UNL1        0.1377
     35 F           3.9416    1.5423   18.1771 F       1  UNL1       -0.2044
     36 C           4.5576   -4.3773   18.9379 C.1     1  UNL1        0.1004
     37 N           4.7117   -5.8572   19.1281 N.1     1  UNL1       -0.1908
@<TRIPOS>BOND
     1     1     2    1
     2     2     3   ar
     3     3     4   ar
     4     4     5   ar
     5     5     6   ar
     6     6     7    1
     7     6     8   ar
     8     8    14    1
     9    14    15   ar
    10    15    16   ar
    11    16    17   ar
    12    17    20    1
    13    20    21    1
    14    20    22    1
    15    20    23    1
    16    17    18   ar
    17    18    19   ar
    18     8     9   ar
    19     9    10   ar
    20    10    11   ar
    21    11    25    1
    22    25    27    1
    23    27    28    1
    24    27    29    1
    25    29    30   ar
    26    30    31   ar
    27    31    36    1
    28    36    37    3
    29    31    32   ar
    30    32    33   ar
    31    33    34   ar
    32    34    35    1
    33    11    12   ar
    34    12    13    1
    35    12     2   ar
    36    10     4   ar
    37    34    29   ar
    38    19    14   ar
    39    23    24    1
    40    25    26    1
@<TRIPOS>MOLECULE
*****
 37 40 0 0 0
SMALL
GASTEIGER

@<TRIPOS>ATOM
      1 C           4.8684   -1.0950   31.6471 C.3     1  UNL1        0.0530
      2 C           4.6791   -1.1779   30.1614 C.ar    1  UNL1        0.0711
      3 N           5.7723   -1.7305   29.2957 N.ar    1  UNL1       -0.2471
      4 C           5.5830   -1.8133   27.8099 C.ar    1  UNL1        0.1020
      5 C           6.6762   -2.3659   26.9442 C.ar    1  UNL1        0.0518
      6 C           6.4868   -2.4487   25.4585 C.ar    1  UNL1        0.1593
      7 F           7.5801   -3.0013   24.5928 F       1  UNL1       -0.2025
      8 C           5.2043   -1.9789   24.8386 C.ar    1  UNL1        0.1117
      9 N           4.1111   -1.4263   25.7043 N.ar    1  UNL1       -0.2402
     10 C           4.3004   -1.3435   27.1899 C.ar    1  UNL1        0.1128
     11 C           3.2072   -0.7909   28.0557 C.ar    1  UNL1        0.0760
     12 C           3.3965   -0.7081   29.5414 C.ar    1  UNL1        0.0857
     13 CL          2.3033   -0.1554   30.4072 Cl      1  UNL1       -0.0797
     14 C           5.0150   -2.0617   23.3528 C.ar    1  UNL1        0.0582
     15 C           4.6247   -3.3635   22.7179 C.ar    1  UNL1        0.1034
     16 N           4.4354   -3.4463   21.2322 N.ar    1  UNL1       -0.2268
     17 C           4.6364   -2.2274   20.3814 C.ar    1  UNL1        0.1630
     18 N           5.0266   -0.9256   21.0164 N.ar    1  UNL1       -0.2268
     19 C           5.2159   -0.8428   22.5021 C.ar    1  UNL1        0.1034
     20 C           4.4471   -2.3101   18.8957 C.3     1  UNL1        0.1399
     21 C           3.7945   -0.9596   18.9036 C.3     1  UNL1        0.0371
     22 C           5.0997   -3.6607   18.8878 C.3     1  UNL1        0.0371
     23 O           4.2578   -2.3929   17.4101 O.3     1  UNL1       -0.3796
     24 H           3.8191   -1.5873   17.0946 H       1  UNL1        0.2108
     25 N           1.9246   -0.3211   27.4358 N.pl3   1  UNL1       -0.3286
     26 H           1.1590   -0.9357   27.3630 H       1  UNL1        0.1471
     27 C           1.8086    1.0851   26.9267 C.3     1  UNL1        0.0942
     28 C           1.3254    2.1749   27.8372 C.3     1  UNL1        0.0262
     29 C           2.1757    1.4016   25.5072 C.ar    1  UNL1        0.0236
     30 C           1.2672    0.9880   24.3875 C.ar    1  UNL1        0.0098
     31 C           1.6343    1.3045   22.9680 C.ar    1  UNL1        0.0683
     32 C           2.9100    2.0345   22.6682 C.ar    1  UNL1        0.0126
     33 C           3.8185    2.4480   23.7878 C.ar    1  UNL1        0.0301
     34 C           3.4513    2.1315   25.2074 C.ar    1  UNL1        0.1377
     35 F           4.3599    2.5451   26.3271 F       1  UNL1       -0.2044
     36 C           0.7259    0.8910   21.8483 C.1     1  UNL1        0.1004
     37 N          -0.1826    0.4776   20.7287 N.1     1  UNL1       -0.1908
@<TRIPOS>BOND
     1     1     2    1
     2     2     3   ar
     3     3     4   ar
     4     4     5   ar
     5     5     6   ar
     6     6     7    1
     7     6     8   ar
     8     8    14    1
     9    14    15   ar
    10    15    16   ar
    11    16    17   ar
    12    17    20    1
    13    20    21    1
    14    20    22    1
    15    20    23    1
    16    17    18   ar
    17    18    19   ar
    18     8     9   ar
    19     9    10   ar
    20    10    11   ar
    21    11    25    1
    22    25    27    1
    23    27    28    1
    24    27    29    1
    25    29    30   ar
    26    30    31   ar
    27    31    36    1
    28    36    37    3
    29    31    32   ar
    30    32    33   ar
    31    33    34   ar
    32    34    35    1
    33    11    12   ar
    34    12    13    1
    35    12     2   ar
    36    10     4   ar
    37    34    29   ar
    38    19    14   ar
    39    23    24    1
    40    25    26    1
