@<TRIPOS>MOLECULE
*****
 31 34 0 0 0
SMALL
GASTEIGER

@<TRIPOS>ATOM
      1 N          -8.3990  -17.2847   23.6236 N.am    1  UNL1       -0.2683
      2 C          -7.4719  -18.0540   22.7299 C.2     1  UNL1        0.3047
      3 O          -7.9956  -19.1970   21.9117 O.2     1  UNL1       -0.2525
      4 N          -6.0212  -17.6804   22.6544 N.am    1  UNL1       -0.2863
      5 H          -8.0554  -16.5345   24.1606 H       1  UNL1        0.1564
      6 H          -5.6775  -16.9302   23.1913 H       1  UNL1        0.1512
      7 C          -5.0941  -18.4497   21.7607 C.3     1  UNL1        0.1020
      8 C          -5.5289  -19.7634   21.1818 C.3     1  UNL1        0.0642
      9 C          -4.6017  -20.5327   20.2881 C.3     1  UNL1        0.1353
     10 C          -4.0854  -21.6226   19.3962 C.3     1  UNL1        0.0437
     11 C          -5.7842  -21.4557   20.2932 C.3     1  UNL1        0.0437
     12 O          -3.2400  -19.9883   19.9733 O.3     1  UNL1       -0.4804
     13 C          -2.8052  -18.6746   20.5522 C.ar    1  UNL1        0.1652
     14 C          -3.7323  -17.9053   21.4459 C.ar    1  UNL1        0.0320
     15 C          -3.2976  -16.5915   22.0247 C.ar    1  UNL1        0.0028
     16 C          -1.9358  -16.0471   21.7099 C.ar    1  UNL1        0.0319
     17 C          -1.0088  -16.8164   20.8163 C.ar    1  UNL1        0.1704
     18 F           0.3531  -16.2720   20.5014 F       1  UNL1       -0.2017
     19 C          -1.4435  -18.1301   20.2374 C.ar    1  UNL1        0.2007
     20 F          -0.5163  -18.8995   19.3437 F       1  UNL1       -0.1986
     21 C         -10.7150  -15.2086   19.1991 C.3     1  UNL1        0.0521
     22 C         -11.2240  -16.0079   20.3618 C.ar    1  UNL1        0.0594
     23 C         -10.2824  -16.4335   21.4491 C.ar    1  UNL1        0.0160
     24 C         -10.7915  -17.2327   22.6118 C.ar    1  UNL1        0.0162
     25 C          -9.8498  -17.6584   23.6991 C.ar    1  UNL1        0.0516
     26 C         -10.3588  -18.4576   24.8619 C.ar    1  UNL1        0.0147
     27 C         -11.8096  -18.8313   24.9373 C.ar    1  UNL1        0.0013
     28 C         -12.7513  -18.4057   23.8501 C.ar    1  UNL1        0.0016
     29 C         -12.2422  -17.6064   22.6874 C.ar    1  UNL1        0.0204
     30 C         -13.1838  -17.1808   21.6001 C.ar    1  UNL1        0.0984
     31 N         -12.6748  -16.3815   20.4374 N.ar    1  UNL1       -0.2481
@<TRIPOS>BOND
     1    21    22    1
     2    22    23   ar
     3    23    24   ar
     4    24    25   ar
     5    25     1    1
     6     1     2   am
     7     2     3    2
     8     2     4   am
     9     7     4    1
    10     7     8    1
    11     8     9    1
    12     9    10    1
    13     9    11    1
    14     9    12    1
    15    12    13    1
    16    13    14   ar
    17    14    15   ar
    18    15    16   ar
    19    16    17   ar
    20    17    18    1
    21    17    19   ar
    22    19    20    1
    23    25    26   ar
    24    26    27   ar
    25    27    28   ar
    26    28    29   ar
    27    29    30   ar
    28    30    31   ar
    29    31    22   ar
    30    29    24   ar
    31    14     7    1
    32    19    13   ar
    33     1     5    1
    34     4     6    1
@<TRIPOS>MOLECULE
*****
 31 34 0 0 0
SMALL
GASTEIGER

@<TRIPOS>ATOM
      1 N           1.7474    2.2614   20.2740 N.am    1  UNL1       -0.2683
      2 C           0.2730    2.2973   20.5479 C.2     1  UNL1        0.3047
      3 O          -0.5631    1.0740   20.3149 O.2     1  UNL1       -0.2525
      4 N          -0.3652    3.5566   21.0548 N.am    1  UNL1       -0.2863
      5 H           2.2962    3.0644   20.4269 H       1  UNL1        0.1564
      6 H           0.1836    4.3595   21.2077 H       1  UNL1        0.1512
      7 C          -1.8395    3.5924   21.3287 C.3     1  UNL1        0.1020
      8 C          -2.8131    3.6435   20.1887 C.3     1  UNL1        0.0642
      9 C          -4.2875    3.6793   20.4627 C.3     1  UNL1        0.1353
     10 C          -5.7662    3.7261   20.2157 C.3     1  UNL1        0.0437
     11 C          -4.3003    3.7108   18.9630 C.3     1  UNL1        0.0437
     12 O          -4.7882    3.6641   21.8765 O.3     1  UNL1       -0.4804
     13 C          -3.8146    3.6131   23.0165 C.ar    1  UNL1        0.1652
     14 C          -2.3403    3.5772   22.7426 C.ar    1  UNL1        0.0320
     15 C          -1.3667    3.5262   23.8825 C.ar    1  UNL1        0.0028
     16 C          -1.8674    3.5110   25.2964 C.ar    1  UNL1        0.0319
     17 C          -3.3417    3.5468   25.5703 C.ar    1  UNL1        0.1704
     18 F          -3.8424    3.5316   26.9842 F       1  UNL1       -0.2017
     19 C          -4.3153    3.5979   24.4303 C.ar    1  UNL1        0.2007
     20 F          -5.7897    3.6337   24.7043 F       1  UNL1       -0.1986
     21 C           3.1823   -0.5625   24.6576 C.3     1  UNL1        0.0521
     22 C           3.3023   -0.8010   23.1816 C.ar    1  UNL1        0.0594
     23 C           2.7840    0.2198   22.2124 C.ar    1  UNL1        0.0160
     24 C           2.9039   -0.0186   20.7363 C.ar    1  UNL1        0.0162
     25 C           2.3856    1.0022   19.7671 C.ar    1  UNL1        0.0516
     26 C           2.5056    0.7638   18.2910 C.ar    1  UNL1        0.0147
     27 C           3.1439   -0.4956   17.7842 C.ar    1  UNL1        0.0013
     28 C           3.6621   -1.5163   18.7534 C.ar    1  UNL1        0.0016
     29 C           3.5422   -1.2779   20.2294 C.ar    1  UNL1        0.0204
     30 C           4.0604   -2.2987   21.1986 C.ar    1  UNL1        0.0984
     31 N           3.9405   -2.0602   22.6747 N.ar    1  UNL1       -0.2481
@<TRIPOS>BOND
     1    21    22    1
     2    22    23   ar
     3    23    24   ar
     4    24    25   ar
     5    25     1    1
     6     1     2   am
     7     2     3    2
     8     2     4   am
     9     7     4    1
    10     7     8    1
    11     8     9    1
    12     9    10    1
    13     9    11    1
    14     9    12    1
    15    12    13    1
    16    13    14   ar
    17    14    15   ar
    18    15    16   ar
    19    16    17   ar
    20    17    18    1
    21    17    19   ar
    22    19    20    1
    23    25    26   ar
    24    26    27   ar
    25    27    28   ar
    26    28    29   ar
    27    29    30   ar
    28    30    31   ar
    29    31    22   ar
    30    29    24   ar
    31    14     7    1
    32    19    13   ar
    33     1     5    1
    34     4     6    1
@<TRIPOS>MOLECULE
*****
 31 34 0 0 0
SMALL
GASTEIGER

@<TRIPOS>ATOM
      1 N           6.6750   -2.1870   22.1518 N.am    1  UNL1       -0.2683
      2 C           6.6301   -3.2904   23.1670 C.2     1  UNL1        0.3047
      3 O           5.6725   -4.4317   22.9924 O.2     1  UNL1       -0.2525
      4 N           7.5429   -3.2526   24.3567 N.am    1  UNL1       -0.2863
      5 H           7.3035   -1.4380   22.2663 H       1  UNL1        0.1564
      6 H           8.1714   -2.5035   24.4712 H       1  UNL1        0.1512
      7 C           7.4980   -4.3559   25.3718 C.3     1  UNL1        0.1020
      8 C           7.8270   -5.7621   24.9662 C.3     1  UNL1        0.0642
      9 C           7.7821   -6.8655   25.9814 C.3     1  UNL1        0.1353
     10 C           7.8787   -8.2398   26.5746 C.3     1  UNL1        0.0437
     11 C           8.1895   -7.6455   24.7667 C.3     1  UNL1        0.0437
     12 O           7.4081   -6.5627   27.4021 O.3     1  UNL1       -0.4804
     13 C           7.0791   -5.1565   27.8077 C.ar    1  UNL1        0.1652
     14 C           7.1240   -4.0532   26.7926 C.ar    1  UNL1        0.0320
     15 C           6.7950   -2.6470   27.1982 C.ar    1  UNL1        0.0028
     16 C           6.4211   -2.3443   28.6189 C.ar    1  UNL1        0.0319
     17 C           6.3762   -3.4476   29.6340 C.ar    1  UNL1        0.1704
     18 F           6.0023   -3.1449   31.0548 F       1  UNL1       -0.2017
     19 C           6.7052   -4.8538   29.2284 C.ar    1  UNL1        0.2007
     20 F           6.6603   -5.9572   30.2436 F       1  UNL1       -0.1986
     21 C           2.1713    0.4154   23.6332 C.3     1  UNL1        0.0521
     22 C           2.6127   -0.2636   22.3705 C.ar    1  UNL1        0.0594
     23 C           3.9667   -0.9047   22.2976 C.ar    1  UNL1        0.0160
     24 C           4.4081   -1.5837   21.0350 C.ar    1  UNL1        0.0162
     25 C           5.7622   -2.2249   20.9621 C.ar    1  UNL1        0.0516
     26 C           6.2035   -2.9039   19.6995 C.ar    1  UNL1        0.0147
     27 C           5.2907   -2.9417   18.5098 C.ar    1  UNL1        0.0013
     28 C           3.9366   -2.3006   18.5827 C.ar    1  UNL1        0.0016
     29 C           3.4953   -1.6216   19.8453 C.ar    1  UNL1        0.0204
     30 C           2.1412   -0.9804   19.9182 C.ar    1  UNL1        0.0984
     31 N           1.6999   -0.3014   21.1809 N.ar    1  UNL1       -0.2481
@<TRIPOS>BOND
     1    21    22    1
     2    22    23   ar
     3    23    24   ar
     4    24    25   ar
     5    25     1    1
     6     1     2   am
     7     2     3    2
     8     2     4   am
     9     7     4    1
    10     7     8    1
    11     8     9    1
    12     9    10    1
    13     9    11    1
    14     9    12    1
    15    12    13    1
    16    13    14   ar
    17    14    15   ar
    18    15    16   ar
    19    16    17   ar
    20    17    18    1
    21    17    19   ar
    22    19    20    1
    23    25    26   ar
    24    26    27   ar
    25    27    28   ar
    26    28    29   ar
    27    29    30   ar
    28    30    31   ar
    29    31    22   ar
    30    29    24   ar
    31    14     7    1
    32    19    13   ar
    33     1     5    1
    34     4     6    1
@<TRIPOS>MOLECULE
*****
 31 34 0 0 0
SMALL
GASTEIGER

@<TRIPOS>ATOM
      1 N           1.7782    2.4393   21.3056 N.am    1  UNL1       -0.2683
      2 C           0.4293    2.4598   20.6498 C.2     1  UNL1        0.3047
      3 O          -0.3908    1.2057   20.5822 O.2     1  UNL1       -0.2525
      4 N          -0.0994    3.7343   20.0616 N.am    1  UNL1       -0.2863
      5 H           2.3165    3.2624   21.3500 H       1  UNL1        0.1564
      6 H           0.4389    4.5574   20.1059 H       1  UNL1        0.1512
      7 C          -1.4483    3.7547   19.4058 C.3     1  UNL1        0.1020
      8 C          -1.5547    3.8363   17.9118 C.3     1  UNL1        0.0642
      9 C          -2.9037    3.8567   17.2560 C.3     1  UNL1        0.1353
     10 C          -3.9468    3.9041   16.1792 C.3     1  UNL1        0.0437
     11 C          -2.0235    3.9344   16.0438 C.3     1  UNL1        0.0437
     12 O          -4.1461    3.7955   18.0942 O.3     1  UNL1       -0.4804
     13 C          -4.0396    3.7138   19.5882 C.ar    1  UNL1        0.1652
     14 C          -2.6908    3.6934   20.2440 C.ar    1  UNL1        0.0320
     15 C          -2.5843    3.6118   21.7380 C.ar    1  UNL1        0.0028
     16 C          -3.8267    3.5506   22.5762 C.ar    1  UNL1        0.0319
     17 C          -5.1756    3.5710   21.9204 C.ar    1  UNL1        0.1704
     18 F          -6.4181    3.5098   22.7586 F       1  UNL1       -0.2017
     19 C          -5.2820    3.6526   20.4264 C.ar    1  UNL1        0.2007
     20 F          -6.6310    3.6730   19.7706 F       1  UNL1       -0.1986
     21 C           3.5926   -0.4954   17.1408 C.3     1  UNL1        0.0521
     22 C           3.5355   -0.7176   18.6231 C.ar    1  UNL1        0.0594
     23 C           2.9498    0.3347   19.5173 C.ar    1  UNL1        0.0160
     24 C           2.8928    0.1125   20.9996 C.ar    1  UNL1        0.0162
     25 C           2.3070    1.1648   21.8938 C.ar    1  UNL1        0.0516
     26 C           2.2499    0.9426   23.3762 C.ar    1  UNL1        0.0147
     27 C           2.7787   -0.3320   23.9643 C.ar    1  UNL1        0.0013
     28 C           3.3645   -1.3843   23.0702 C.ar    1  UNL1        0.0016
     29 C           3.4215   -1.1621   21.5878 C.ar    1  UNL1        0.0204
     30 C           4.0072   -2.2143   20.6937 C.ar    1  UNL1        0.0984
     31 N           4.0643   -1.9921   19.2113 N.ar    1  UNL1       -0.2481
@<TRIPOS>BOND
     1    21    22    1
     2    22    23   ar
     3    23    24   ar
     4    24    25   ar
     5    25     1    1
     6     1     2   am
     7     2     3    2
     8     2     4   am
     9     7     4    1
    10     7     8    1
    11     8     9    1
    12     9    10    1
    13     9    11    1
    14     9    12    1
    15    12    13    1
    16    13    14   ar
    17    14    15   ar
    18    15    16   ar
    19    16    17   ar
    20    17    18    1
    21    17    19   ar
    22    19    20    1
    23    25    26   ar
    24    26    27   ar
    25    27    28   ar
    26    28    29   ar
    27    29    30   ar
    28    30    31   ar
    29    31    22   ar
    30    29    24   ar
    31    14     7    1
    32    19    13   ar
    33     1     5    1
    34     4     6    1
@<TRIPOS>MOLECULE
*****
 31 34 0 0 0
SMALL
GASTEIGER

@<TRIPOS>ATOM
      1 N           5.4991   -1.2073   23.0252 N.am    1  UNL1       -0.2683
      2 C           5.7952   -2.4928   23.7393 C.2     1  UNL1        0.3047
      3 O           5.1604   -3.7708   23.2772 O.2     1  UNL1       -0.2525
      4 N           6.7261   -2.5001   24.9154 N.am    1  UNL1       -0.2863
      5 H           5.9158   -0.3684   23.3284 H       1  UNL1        0.1564
      6 H           7.1428   -1.6613   25.2187 H       1  UNL1        0.1512
      7 C           7.0222   -3.7856   25.6295 C.3     1  UNL1        0.1020
      8 C           7.4562   -4.9927   24.8520 C.3     1  UNL1        0.0642
      9 C           7.7522   -6.2782   25.5661 C.3     1  UNL1        0.1353
     10 C           8.1434   -7.7090   25.7890 C.3     1  UNL1        0.0437
     11 C           8.0260   -6.6968   24.1519 C.3     1  UNL1        0.0437
     12 O           7.6143   -6.3565   27.0576 O.3     1  UNL1       -0.4804
     13 C           7.1803   -5.1494   27.8352 C.ar    1  UNL1        0.1652
     14 C           6.8842   -3.8640   27.1211 C.ar    1  UNL1        0.0320
     15 C           6.4502   -2.6569   27.8986 C.ar    1  UNL1        0.0028
     16 C           6.3123   -2.7352   29.3902 C.ar    1  UNL1        0.0319
     17 C           6.6083   -4.0207   30.1042 C.ar    1  UNL1        0.1704
     18 F           6.4704   -4.0990   31.5959 F       1  UNL1       -0.2017
     19 C           7.0423   -5.2278   29.3267 C.ar    1  UNL1        0.2007
     20 F           7.3384   -6.5133   30.0408 F       1  UNL1       -0.1986
     21 C           8.5070   -2.5100   18.7234 C.3     1  UNL1        0.0521
     22 C           7.0569   -2.1788   18.9167 C.ar    1  UNL1        0.0594
     23 C           6.5376   -1.8550   20.2862 C.ar    1  UNL1        0.0160
     24 C           5.0875   -1.5237   20.4795 C.ar    1  UNL1        0.0162
     25 C           4.5682   -1.1999   21.8490 C.ar    1  UNL1        0.0516
     26 C           3.1181   -0.8686   22.0423 C.ar    1  UNL1        0.0147
     27 C           2.1872   -0.8613   20.8661 C.ar    1  UNL1        0.0013
     28 C           2.7064   -1.1851   19.4967 C.ar    1  UNL1        0.0016
     29 C           4.1566   -1.5164   19.3033 C.ar    1  UNL1        0.0204
     30 C           4.6758   -1.8402   17.9339 C.ar    1  UNL1        0.0984
     31 N           6.1260   -2.1714   17.7406 N.ar    1  UNL1       -0.2481
@<TRIPOS>BOND
     1    21    22    1
     2    22    23   ar
     3    23    24   ar
     4    24    25   ar
     5    25     1    1
     6     1     2   am
     7     2     3    2
     8     2     4   am
     9     7     4    1
    10     7     8    1
    11     8     9    1
    12     9    10    1
    13     9    11    1
    14     9    12    1
    15    12    13    1
    16    13    14   ar
    17    14    15   ar
    18    15    16   ar
    19    16    17   ar
    20    17    18    1
    21    17    19   ar
    22    19    20    1
    23    25    26   ar
    24    26    27   ar
    25    27    28   ar
    26    28    29   ar
    27    29    30   ar
    28    30    31   ar
    29    31    22   ar
    30    29    24   ar
    31    14     7    1
    32    19    13   ar
    33     1     5    1
    34     4     6    1
@<TRIPOS>MOLECULE
*****
 31 34 0 0 0
SMALL
GASTEIGER

@<TRIPOS>ATOM
      1 N          -5.8270    3.3453   23.3037 N.am    1  UNL1       -0.2683
      2 C          -5.0380    3.8236   22.1209 C.2     1  UNL1        0.3047
      3 O          -4.9638    5.2895   21.8120 O.2     1  UNL1       -0.2525
      4 N          -4.3233    2.8359   21.2471 N.am    1  UNL1       -0.2863
      5 H          -5.8758    2.3832   23.5064 H       1  UNL1        0.1564
      6 H          -4.3720    1.8737   21.4499 H       1  UNL1        0.1512
      7 C          -3.5344    3.3141   20.0645 C.3     1  UNL1        0.1020
      8 C          -4.2416    3.7193   18.8053 C.3     1  UNL1        0.0642
      9 C          -3.4526    4.1976   17.6225 C.3     1  UNL1        0.1353
     10 C          -3.1464    4.7125   16.2474 C.3     1  UNL1        0.0437
     11 C          -4.8425    4.3033   17.0684 C.3     1  UNL1        0.0437
     12 O          -1.9564    4.2706   17.6991 O.3     1  UNL1       -0.4804
     13 C          -1.2491    3.8654   18.9583 C.ar    1  UNL1        0.1652
     14 C          -2.0380    3.3872   20.1409 C.ar    1  UNL1        0.0320
     15 C          -1.3307    2.9820   21.4001 C.ar    1  UNL1        0.0028
     16 C           0.1655    3.0551   21.4767 C.ar    1  UNL1        0.0319
     17 C           0.9544    3.5333   20.2940 C.ar    1  UNL1        0.1704
     18 F           2.4507    3.6064   20.3704 F       1  UNL1       -0.2017
     19 C           0.2471    3.9385   19.0348 C.ar    1  UNL1        0.2007
     20 F           1.0362    4.4168   17.8520 F       1  UNL1       -0.1986
     21 C          -2.3097    4.7547   27.1627 C.3     1  UNL1        0.0521
     22 C          -3.7251    5.1431   26.8533 C.ar    1  UNL1        0.0594
     23 C          -4.4257    4.5439   25.6701 C.ar    1  UNL1        0.0160
     24 C          -5.8411    4.9324   25.3607 C.ar    1  UNL1        0.0162
     25 C          -6.5418    4.3331   24.1774 C.ar    1  UNL1        0.0516
     26 C          -7.9572    4.7215   23.8680 C.ar    1  UNL1        0.0147
     27 C          -8.6719    5.7093   24.7419 C.ar    1  UNL1        0.0013
     28 C          -7.9713    6.3086   25.9250 C.ar    1  UNL1        0.0016
     29 C          -6.5559    5.9201   26.2344 C.ar    1  UNL1        0.0204
     30 C          -5.8552    6.5193   27.4176 C.ar    1  UNL1        0.0984
     31 N          -4.4398    6.1309   27.7270 N.ar    1  UNL1       -0.2481
@<TRIPOS>BOND
     1    21    22    1
     2    22    23   ar
     3    23    24   ar
     4    24    25   ar
     5    25     1    1
     6     1     2   am
     7     2     3    2
     8     2     4   am
     9     7     4    1
    10     7     8    1
    11     8     9    1
    12     9    10    1
    13     9    11    1
    14     9    12    1
    15    12    13    1
    16    13    14   ar
    17    14    15   ar
    18    15    16   ar
    19    16    17   ar
    20    17    18    1
    21    17    19   ar
    22    19    20    1
    23    25    26   ar
    24    26    27   ar
    25    27    28   ar
    26    28    29   ar
    27    29    30   ar
    28    30    31   ar
    29    31    22   ar
    30    29    24   ar
    31    14     7    1
    32    19    13   ar
    33     1     5    1
    34     4     6    1
@<TRIPOS>MOLECULE
*****
 31 34 0 0 0
SMALL
GASTEIGER

@<TRIPOS>ATOM
      1 N           4.3443    0.3415   26.6984 N.am    1  UNL1       -0.2683
      2 C           4.6728   -0.9961   27.2928 C.2     1  UNL1        0.3047
      3 O           3.5946   -2.0241   27.4678 O.2     1  UNL1       -0.2525
      4 N           6.0793   -1.3054   27.7122 N.am    1  UNL1       -0.2863
      5 H           5.0520    1.0162   26.5835 H       1  UNL1        0.1564
      6 H           6.7869   -0.6307   27.5974 H       1  UNL1        0.1512
      7 C           6.4076   -2.6429   28.3066 C.3     1  UNL1        0.1020
      8 C           6.4143   -2.8205   29.7961 C.3     1  UNL1        0.0642
      9 C           6.7427   -4.1580   30.3904 C.3     1  UNL1        0.1353
     10 C           6.9890   -5.2208   31.4199 C.3     1  UNL1        0.0437
     11 C           6.5065   -3.3672   31.6430 C.3     1  UNL1        0.0437
     12 O           7.0643   -5.3179   29.4954 O.3     1  UNL1       -0.4804
     13 C           7.0577   -5.1403   28.0059 C.ar    1  UNL1        0.1652
     14 C           6.7293   -3.8029   27.4116 C.ar    1  UNL1        0.0320
     15 C           6.7226   -3.6253   25.9221 C.ar    1  UNL1        0.0028
     16 C           7.0443   -4.7852   25.0271 C.ar    1  UNL1        0.0319
     17 C           7.3727   -6.1226   25.6215 C.ar    1  UNL1        0.1704
     18 F           7.6944   -7.2826   24.7264 F       1  UNL1       -0.2017
     19 C           7.3793   -6.3002   27.1109 C.ar    1  UNL1        0.2007
     20 F           7.7077   -7.6378   27.7053 F       1  UNL1       -0.1986
     21 C           1.6666    1.5835   31.2302 C.3     1  UNL1        0.0521
     22 C           1.2811    1.5050   29.7827 C.ar    1  UNL1        0.0594
     23 C           2.3022    1.1172   28.7546 C.ar    1  UNL1        0.0160
     24 C           1.9167    1.0387   27.3071 C.ar    1  UNL1        0.0162
     25 C           2.9378    0.6508   26.2790 C.ar    1  UNL1        0.0516
     26 C           2.5524    0.5724   24.8315 C.ar    1  UNL1        0.0147
     27 C           1.1457    0.8818   24.4121 C.ar    1  UNL1        0.0013
     28 C           0.1247    1.2696   25.4402 C.ar    1  UNL1        0.0016
     29 C           0.5102    1.3481   26.8877 C.ar    1  UNL1        0.0204
     30 C          -0.5109    1.7359   27.9157 C.ar    1  UNL1        0.0984
     31 N          -0.1254    1.8144   29.3632 N.ar    1  UNL1       -0.2481
@<TRIPOS>BOND
     1    21    22    1
     2    22    23   ar
     3    23    24   ar
     4    24    25   ar
     5    25     1    1
     6     1     2   am
     7     2     3    2
     8     2     4   am
     9     7     4    1
    10     7     8    1
    11     8     9    1
    12     9    10    1
    13     9    11    1
    14     9    12    1
    15    12    13    1
    16    13    14   ar
    17    14    15   ar
    18    15    16   ar
    19    16    17   ar
    20    17    18    1
    21    17    19   ar
    22    19    20    1
    23    25    26   ar
    24    26    27   ar
    25    27    28   ar
    26    28    29   ar
    27    29    30   ar
    28    30    31   ar
    29    31    22   ar
    30    29    24   ar
    31    14     7    1
    32    19    13   ar
    33     1     5    1
    34     4     6    1
@<TRIPOS>MOLECULE
*****
 31 34 0 0 0
SMALL
GASTEIGER

@<TRIPOS>ATOM
      1 N          -0.6634    3.9657   19.6349 N.am    1  UNL1       -0.2683
      2 C          -0.0064    2.7336   20.1830 C.2     1  UNL1        0.3047
      3 O          -0.7706    1.4448   20.2544 O.2     1  UNL1       -0.2525
      4 N           1.4147    2.7903   20.6596 N.am    1  UNL1       -0.2863
      5 H          -0.1619    4.8116   19.5881 H       1  UNL1        0.1564
      6 H           1.9162    3.6361   20.6127 H       1  UNL1        0.1512
      7 C           2.0716    1.5582   21.2076 C.3     1  UNL1        0.1020
      8 C           2.0845    1.3099   22.6868 C.3     1  UNL1        0.0642
      9 C           2.7415    0.0778   23.2348 C.3     1  UNL1        0.1353
     10 C           3.2342   -0.9347   24.2258 C.3     1  UNL1        0.0437
     11 C           2.2686    0.7100   24.5103 C.3     1  UNL1        0.0437
     12 O           3.3855   -0.9061   22.3036 O.3     1  UNL1       -0.4804
     13 C           3.3726   -0.6578   20.8243 C.ar    1  UNL1        0.1652
     14 C           2.7157    0.5743   20.2763 C.ar    1  UNL1        0.0320
     15 C           2.7028    0.8225   18.7971 C.ar    1  UNL1        0.0028
     16 C           3.3468   -0.1613   17.8658 C.ar    1  UNL1        0.0319
     17 C           4.0037   -1.3934   18.4138 C.ar    1  UNL1        0.1704
     18 F           4.6478   -2.3773   17.4825 F       1  UNL1       -0.2017
     19 C           4.0166   -1.6416   19.8931 C.ar    1  UNL1        0.2007
     20 F           4.6736   -2.8738   20.4410 F       1  UNL1       -0.1986
     21 C          -3.7219    3.5863   24.0792 C.3     1  UNL1        0.0521
     22 C          -4.0232    3.6386   22.6107 C.ar    1  UNL1        0.0594
     23 C          -2.9033    3.7477   21.6188 C.ar    1  UNL1        0.0160
     24 C          -3.2045    3.8000   20.1503 C.ar    1  UNL1        0.0162
     25 C          -2.0845    3.9090   19.1583 C.ar    1  UNL1        0.0516
     26 C          -2.3857    3.9614   17.6898 C.ar    1  UNL1        0.0147
     27 C          -3.8070    3.9047   17.2132 C.ar    1  UNL1        0.0013
     28 C          -4.9268    3.7956   18.2051 C.ar    1  UNL1        0.0016
     29 C          -4.6256    3.7433   19.6737 C.ar    1  UNL1        0.0204
     30 C          -5.7455    3.6343   20.6656 C.ar    1  UNL1        0.0984
     31 N          -5.4443    3.5819   22.1341 N.ar    1  UNL1       -0.2481
@<TRIPOS>BOND
     1    21    22    1
     2    22    23   ar
     3    23    24   ar
     4    24    25   ar
     5    25     1    1
     6     1     2   am
     7     2     3    2
     8     2     4   am
     9     7     4    1
    10     7     8    1
    11     8     9    1
    12     9    10    1
    13     9    11    1
    14     9    12    1
    15    12    13    1
    16    13    14   ar
    17    14    15   ar
    18    15    16   ar
    19    16    17   ar
    20    17    18    1
    21    17    19   ar
    22    19    20    1
    23    25    26   ar
    24    26    27   ar
    25    27    28   ar
    26    28    29   ar
    27    29    30   ar
    28    30    31   ar
    29    31    22   ar
    30    29    24   ar
    31    14     7    1
    32    19    13   ar
    33     1     5    1
    34     4     6    1
@<TRIPOS>MOLECULE
*****
 31 34 0 0 0
SMALL
GASTEIGER

@<TRIPOS>ATOM
      1 N          -1.0636    4.1905   25.5453 N.am    1  UNL1       -0.2683
      2 C          -0.3837    3.0777   26.2866 C.2     1  UNL1        0.3047
      3 O          -1.1163    1.7960   26.5521 O.2     1  UNL1       -0.2525
      4 N           1.0288    3.2466   26.7622 N.am    1  UNL1       -0.2863
      5 H          -0.5828    5.0318   25.3711 H       1  UNL1        0.1564
      6 H           1.5097    4.0878   26.5880 H       1  UNL1        0.1512
      7 C           1.7087    2.1338   27.5034 C.3     1  UNL1        0.1020
      8 C           2.4451    1.0685   26.7465 C.3     1  UNL1        0.0642
      9 C           3.1250   -0.0443   27.4877 C.3     1  UNL1        0.1353
     10 C           3.9204   -1.2910   27.7388 C.3     1  UNL1        0.0437
     11 C           3.4578   -0.4297   26.0767 C.3     1  UNL1        0.0437
     12 O           3.0684   -0.0919   28.9859 O.3     1  UNL1       -0.4804
     13 C           2.3320    0.9733   29.7428 C.ar    1  UNL1        0.1652
     14 C           1.6521    2.0861   29.0016 C.ar    1  UNL1        0.0320
     15 C           0.9157    3.1513   29.7586 C.ar    1  UNL1        0.0028
     16 C           0.8591    3.1037   31.2568 C.ar    1  UNL1        0.0319
     17 C           1.5390    1.9909   31.9979 C.ar    1  UNL1        0.1704
     18 F           1.4825    1.9433   33.4962 F       1  UNL1       -0.2017
     19 C           2.2754    0.9257   31.2410 C.ar    1  UNL1        0.2007
     20 F           2.9553   -0.1872   31.9822 F       1  UNL1       -0.1986
     21 C          -0.7408    3.0029   20.2789 C.3     1  UNL1        0.0521
     22 C          -1.8809    3.1731   21.2387 C.ar    1  UNL1        0.0594
     23 C          -1.6085    3.5122   22.6742 C.ar    1  UNL1        0.0160
     24 C          -2.7485    3.6825   23.6341 C.ar    1  UNL1        0.0162
     25 C          -2.4761    4.0216   25.0697 C.ar    1  UNL1        0.0516
     26 C          -3.6161    4.1919   26.0295 C.ar    1  UNL1        0.0147
     27 C          -5.0287    4.0229   25.5537 C.ar    1  UNL1        0.0013
     28 C          -5.3011    3.6838   24.1182 C.ar    1  UNL1        0.0016
     29 C          -4.1610    3.5136   23.1584 C.ar    1  UNL1        0.0204
     30 C          -4.4334    3.1744   21.7229 C.ar    1  UNL1        0.0984
     31 N          -3.2934    3.0042   20.7631 N.ar    1  UNL1       -0.2481
@<TRIPOS>BOND
     1    21    22    1
     2    22    23   ar
     3    23    24   ar
     4    24    25   ar
     5    25     1    1
     6     1     2   am
     7     2     3    2
     8     2     4   am
     9     7     4    1
    10     7     8    1
    11     8     9    1
    12     9    10    1
    13     9    11    1
    14     9    12    1
    15    12    13    1
    16    13    14   ar
    17    14    15   ar
    18    15    16   ar
    19    16    17   ar
    20    17    18    1
    21    17    19   ar
    22    19    20    1
    23    25    26   ar
    24    26    27   ar
    25    27    28   ar
    26    28    29   ar
    27    29    30   ar
    28    30    31   ar
    29    31    22   ar
    30    29    24   ar
    31    14     7    1
    32    19    13   ar
    33     1     5    1
    34     4     6    1
