@<TRIPOS>MOLECULE
*****
 36 40 0 0 0
SMALL
GASTEIGER

@<TRIPOS>ATOM
      1 C           0.4275    2.0839   28.5900 C.3     1  UNL1        0.0744
      2 C           1.4129    3.2022   28.4217 C.3     1  UNL1        0.0121
      3 C          -0.1217    2.3622   27.2221 C.ar    1  UNL1       -0.0159
      4 C          -1.3615    3.1921   27.0663 C.ar    1  UNL1       -0.0039
      5 C          -1.9107    3.4703   25.6985 C.ar    1  UNL1       -0.0002
      6 C          -1.2201    2.9186   24.4865 C.ar    1  UNL1        0.0030
      7 C           0.0196    2.0888   24.6423 C.ar    1  UNL1       -0.0002
      8 C           0.5688    1.8105   26.0101 C.ar    1  UNL1       -0.0039
      9 C          -1.7694    3.1969   23.1187 C.ar    1  UNL1        0.0384
     10 C          -3.1590    3.7404   22.9647 C.ar    1  UNL1        0.1033
     11 N          -3.7082    4.0186   21.5969 N.ar    1  UNL1       -0.2125
     12 C          -2.8679    3.7534   20.3830 C.ar    1  UNL1        0.2137
     13 N          -3.4171    4.0317   19.0152 N.pl3   1  UNL1       -0.3274
     14 N          -1.4782    3.2099   20.5370 N.ar    1  UNL1       -0.2125
     15 C          -0.9290    2.9317   21.9048 C.ar    1  UNL1        0.1033
     16 H          -4.3291    4.3884   18.9142 H       1  UNL1        0.1452
     17 H          -2.8655    3.8576   18.2185 H       1  UNL1        0.1452
     18 C           1.6416    2.0734   32.2766 C.ar    1  UNL1        0.2628
     19 N           1.0076    2.7680   31.1080 N.ar    1  UNL1       -0.1907
     20 C           0.9768    1.8057   29.9577 C.ar    1  UNL1        0.1837
     21 N           1.5917    0.5163   30.4155 N.ar    1  UNL1       -0.0599
     22 O           2.0026    0.6817   31.8486 O.2     1  UNL1       -0.3326
     23 N           2.6558    2.9888   35.9096 N.ar    1  UNL1       -0.2468
     24 C           2.6975    2.0604   34.7322 C.ar    1  UNL1        0.1015
     25 C           1.8738    2.6663   33.6347 C.ar    1  UNL1        0.0956
     26 C           1.3231    3.9691   34.1339 C.ar    1  UNL1        0.1264
     27 N           1.8064    4.1685   35.5398 N.ar    1  UNL1       -0.1674
     28 C           3.3430    2.7750   37.2257 C.3     1  UNL1        0.1541
     29 C           1.7275    2.2909   38.5124 C.3     1  UNL1        0.0314
     30 C           2.9823    1.5939   38.0770 C.3     1  UNL1        0.1110
     31 C           4.2372    0.8969   37.6416 C.3     1  UNL1        0.0314
     32 O           2.6216    0.4128   38.9283 O.3     1  UNL1       -0.3848
     33 H           1.7788    0.5831   39.3773 H       1  UNL1        0.2103
     34 C          -0.5579    0.9656   28.7582 C.3     1  UNL1        0.0106
     35 C          -1.7862    0.4037   29.4104 C.3     1  UNL1        0.0008
     36 C          -1.0363   -0.4095   28.3973 C.3     1  UNL1        0.0008
@<TRIPOS>BOND
     1    29    30    1
     2    30    31    1
     3    30    32    1
     4    30    28    1
     5    28    23    1
     6    23    24   ar
     7    24    25   ar
     8    25    18    1
     9    18    19   ar
    10    19    20   ar
    11    20     1    1
    12     1     2    1
    13     1     3    1
    14     3     4   ar
    15     4     5   ar
    16     5     6   ar
    17     6     9    1
    18     9    10   ar
    19    10    11   ar
    20    11    12   ar
    21    12    13    1
    22    12    14   ar
    23    14    15   ar
    24     6     7   ar
    25     7     8   ar
    26     1    34    1
    27    34    35    1
    28    35    36    1
    29    20    21   ar
    30    21    22   ar
    31    25    26   ar
    32    26    27   ar
    33    27    23   ar
    34    22    18   ar
    35     8     3   ar
    36    36    34    1
    37    15     9   ar
    38    32    33    1
    39    13    16    1
    40    13    17    1
@<TRIPOS>MOLECULE
*****
 36 40 0 0 0
SMALL
GASTEIGER

@<TRIPOS>ATOM
      1 C           0.7789    1.4131   28.5136 C.3     1  UNL1        0.0744
      2 C           1.9901    2.2448   28.2115 C.3     1  UNL1        0.0121
      3 C           0.1106    1.9374   27.2772 C.ar    1  UNL1       -0.0159
      4 C          -0.9441    2.9982   27.3872 C.ar    1  UNL1       -0.0039
      5 C          -1.6123    3.5225   26.1509 C.ar    1  UNL1       -0.0002
      6 C          -1.2258    2.9859   24.8045 C.ar    1  UNL1        0.0030
      7 C          -0.1710    1.9251   24.6945 C.ar    1  UNL1       -0.0002
      8 C           0.4972    1.4009   25.9308 C.ar    1  UNL1       -0.0039
      9 C          -1.8941    3.5103   23.5681 C.ar    1  UNL1        0.0384
     10 C          -3.2083    4.2259   23.6720 C.ar    1  UNL1        0.1033
     11 N          -3.8766    4.7502   22.4356 N.ar    1  UNL1       -0.2125
     12 C          -3.2306    4.5589   21.0954 C.ar    1  UNL1        0.2137
     13 N          -3.8988    5.0831   19.8591 N.pl3   1  UNL1       -0.3274
     14 N          -1.9164    3.8432   20.9916 N.ar    1  UNL1       -0.2125
     15 C          -1.2482    3.3189   22.2279 C.ar    1  UNL1        0.1033
     16 H          -4.7614    5.5528   19.9272 H       1  UNL1        0.1452
     17 H          -3.4749    4.9575   18.9795 H       1  UNL1        0.1452
     18 C           2.5084    0.7781   31.9298 C.ar    1  UNL1        0.2628
     19 N           1.8931    1.7069   30.9254 N.ar    1  UNL1       -0.1907
     20 C           1.4472    0.8888   29.7499 C.ar    1  UNL1        0.1837
     21 N           1.7870   -0.5455   30.0277 N.ar    1  UNL1       -0.0599
     22 O           2.4429   -0.6140   31.3749 O.2     1  UNL1       -0.3326
     23 N           3.4263    2.2770   35.3905 N.ar    1  UNL1       -0.2468
     24 C           2.5338    2.2101   34.1867 C.ar    1  UNL1        0.1015
     25 C           3.0877    1.1722   33.2562 C.ar    1  UNL1        0.0956
     26 C           4.3224    0.5977   33.8848 C.ar    1  UNL1        0.1264
     27 N           4.5317    1.2804   35.2038 N.ar    1  UNL1       -0.1674
     28 C           3.2451    3.1816   36.5733 C.3     1  UNL1        0.1541
     29 C           1.5229    4.3821   36.8773 C.3     1  UNL1        0.0314
     30 C           2.0115    3.0717   37.4195 C.3     1  UNL1        0.1110
     31 C           2.5003    1.7613   37.9618 C.3     1  UNL1        0.0314
     32 O           0.7780    2.9619   38.2658 O.3     1  UNL1       -0.3848
     33 H           0.2141    3.7371   38.1176 H       1  UNL1        0.2103
     34 C          -0.4322    0.5814   28.8156 C.3     1  UNL1        0.0106
     35 C          -1.2735   -0.6321   28.5518 C.3     1  UNL1        0.0008
     36 C          -1.6889    0.3544   29.6026 C.3     1  UNL1        0.0008
@<TRIPOS>BOND
     1    29    30    1
     2    30    31    1
     3    30    32    1
     4    30    28    1
     5    28    23    1
     6    23    24   ar
     7    24    25   ar
     8    25    18    1
     9    18    19   ar
    10    19    20   ar
    11    20     1    1
    12     1     2    1
    13     1     3    1
    14     3     4   ar
    15     4     5   ar
    16     5     6   ar
    17     6     9    1
    18     9    10   ar
    19    10    11   ar
    20    11    12   ar
    21    12    13    1
    22    12    14   ar
    23    14    15   ar
    24     6     7   ar
    25     7     8   ar
    26     1    34    1
    27    34    35    1
    28    35    36    1
    29    20    21   ar
    30    21    22   ar
    31    25    26   ar
    32    26    27   ar
    33    27    23   ar
    34    22    18   ar
    35     8     3   ar
    36    36    34    1
    37    15     9   ar
    38    32    33    1
    39    13    16    1
    40    13    17    1
@<TRIPOS>MOLECULE
*****
 36 40 0 0 0
SMALL
GASTEIGER

@<TRIPOS>ATOM
      1 C           0.7321    1.5054   28.5065 C.3     1  UNL1        0.0744
      2 C           1.8948    2.4024   28.2006 C.3     1  UNL1        0.0121
      3 C           0.0001    2.0479   27.3149 C.ar    1  UNL1       -0.0159
      4 C           0.1736    1.4043   25.9711 C.ar    1  UNL1       -0.0039
      5 C          -0.5584    1.9469   24.7796 C.ar    1  UNL1       -0.0002
      6 C          -1.4640    3.1329   24.9319 C.ar    1  UNL1        0.0030
      7 C          -1.6375    3.7765   26.2756 C.ar    1  UNL1       -0.0002
      8 C          -0.9055    3.2339   27.4671 C.ar    1  UNL1       -0.0039
      9 C          -2.1961    3.6754   23.7403 C.ar    1  UNL1        0.0384
     10 C          -3.5083    4.3788   23.9226 C.ar    1  UNL1        0.1033
     11 N          -4.2404    4.9214   22.7310 N.ar    1  UNL1       -0.2125
     12 C          -3.6601    4.7604   21.3571 C.ar    1  UNL1        0.2137
     13 N          -4.3921    5.3029   20.1656 N.pl3   1  UNL1       -0.3274
     14 N          -2.3478    4.0570   21.1749 N.ar    1  UNL1       -0.2125
     15 C          -1.6159    3.5145   22.3664 C.ar    1  UNL1        0.1033
     16 H          -5.2534    5.7646   20.2852 H       1  UNL1        0.1452
     17 H          -4.0113    5.1973   19.2639 H       1  UNL1        0.1452
     18 C           2.9900   -0.3204   31.0821 C.ar    1  UNL1        0.2628
     19 N           2.5404   -0.0816   29.6711 N.ar    1  UNL1       -0.1907
     20 C           1.4642    0.9629   29.6980 C.ar    1  UNL1        0.1837
     21 N           1.2486    1.3696   31.1256 N.ar    1  UNL1       -0.0599
     22 O           2.1915    0.5766   31.9811 O.2     1  UNL1       -0.3326
     23 N           5.9862   -2.7519   31.5014 N.ar    1  UNL1       -0.2468
     24 C           5.1626   -1.8201   30.6628 C.ar    1  UNL1        0.1015
     25 C           4.0516   -1.2864   31.5177 C.ar    1  UNL1        0.0956
     26 C           4.1886   -1.8885   32.8847 C.ar    1  UNL1        0.1264
     27 N           5.3842   -2.7942   32.8747 N.ar    1  UNL1       -0.1674
     28 C           7.1989   -3.5087   31.0466 C.3     1  UNL1        0.1541
     29 C           7.1791   -4.0266   28.9897 C.3     1  UNL1        0.0314
     30 C           7.0406   -4.7857   30.2759 C.3     1  UNL1        0.1110
     31 C           6.9021   -5.5448   31.5623 C.3     1  UNL1        0.0314
     32 O           6.8824   -6.0628   29.5053 O.3     1  UNL1       -0.3848
     33 H           6.9327   -5.8753   28.5549 H       1  UNL1        0.2103
     34 C          -0.4305    0.6083   28.8124 C.3     1  UNL1        0.0106
     35 C          -1.7697    0.3899   29.4517 C.3     1  UNL1        0.0008
     36 C          -1.1050   -0.7270   28.7029 C.3     1  UNL1        0.0008
@<TRIPOS>BOND
     1    29    30    1
     2    30    31    1
     3    30    32    1
     4    30    28    1
     5    28    23    1
     6    23    24   ar
     7    24    25   ar
     8    25    18    1
     9    18    19   ar
    10    19    20   ar
    11    20     1    1
    12     1     2    1
    13     1     3    1
    14     3     4   ar
    15     4     5   ar
    16     5     6   ar
    17     6     9    1
    18     9    10   ar
    19    10    11   ar
    20    11    12   ar
    21    12    13    1
    22    12    14   ar
    23    14    15   ar
    24     6     7   ar
    25     7     8   ar
    26     1    34    1
    27    34    35    1
    28    35    36    1
    29    20    21   ar
    30    21    22   ar
    31    25    26   ar
    32    26    27   ar
    33    27    23   ar
    34    22    18   ar
    35     8     3   ar
    36    36    34    1
    37    15     9   ar
    38    32    33    1
    39    13    16    1
    40    13    17    1
@<TRIPOS>MOLECULE
*****
 36 40 0 0 0
SMALL
GASTEIGER

@<TRIPOS>ATOM
      1 C           0.2902    2.1603   28.5268 C.3     1  UNL1        0.0744
      2 C           1.1436    3.3709   28.2898 C.3     1  UNL1        0.0121
      3 C           1.1305    1.8009   29.7163 C.ar    1  UNL1       -0.0159
      4 C           0.7097    2.2325   31.0898 C.ar    1  UNL1       -0.0039
      5 C           1.5500    1.8730   32.2792 C.ar    1  UNL1       -0.0002
      6 C           2.8111    1.0820   32.0950 C.ar    1  UNL1        0.0030
      7 C           3.2319    0.6504   30.7215 C.ar    1  UNL1       -0.0002
      8 C           2.3916    1.0098   29.5321 C.ar    1  UNL1       -0.0039
      9 C           3.6514    0.7226   33.2845 C.ar    1  UNL1        0.0384
     10 C           4.1552   -0.6805   33.4505 C.ar    1  UNL1        0.1033
     11 N           4.9955   -1.0399   34.6400 N.ar    1  UNL1       -0.2125
     12 C           5.3319    0.0038   35.6634 C.ar    1  UNL1        0.2137
     13 N           6.1721   -0.3556   36.8529 N.pl3   1  UNL1       -0.3274
     14 N           4.8280    1.4069   35.4974 N.ar    1  UNL1       -0.2125
     15 C           3.9878    1.7663   34.3080 C.ar    1  UNL1        0.1033
     16 H           6.5028   -1.2765   36.9618 H       1  UNL1        0.1452
     17 H           6.3930    0.3294   37.5246 H       1  UNL1        0.1452
     18 C          -2.1166    3.6640   25.8789 C.ar    1  UNL1        0.2628
     19 N          -1.4865    3.6874   27.2399 N.ar    1  UNL1       -0.1907
     20 C          -0.5500    2.5197   27.3374 C.ar    1  UNL1        0.1837
     21 N          -0.6013    1.7746   26.0365 N.ar    1  UNL1       -0.0599
     22 O          -1.5694    2.4818   25.1351 O.2     1  UNL1       -0.3326
     23 N          -4.9569    5.6324   24.1116 N.ar    1  UNL1       -0.2468
     24 C          -4.1887    4.3650   24.3427 C.ar    1  UNL1        0.1015
     25 C          -3.1179    4.6497   25.3538 C.ar    1  UNL1        0.0956
     26 C          -3.2243    6.0931   25.7476 C.ar    1  UNL1        0.1264
     27 N          -4.3608    6.7005   24.9799 N.ar    1  UNL1       -0.1674
     28 C          -6.1174    5.8021   23.1764 C.3     1  UNL1        0.1541
     29 C          -6.7791    4.2715   21.8652 C.3     1  UNL1        0.0314
     30 C          -7.2410    4.8084   23.1875 C.3     1  UNL1        0.1110
     31 C          -7.7028    5.3455   24.5098 C.3     1  UNL1        0.0314
     32 O          -8.3646    3.8148   23.1985 O.3     1  UNL1       -0.3848
     33 H          -8.3252    3.2733   22.3948 H       1  UNL1        0.2103
     34 C          -0.5632    0.9497   28.7638 C.3     1  UNL1        0.0106
     35 C          -0.7602   -0.5354   28.6899 C.3     1  UNL1        0.0008
     36 C          -1.8443    0.3381   29.2481 C.3     1  UNL1        0.0008
@<TRIPOS>BOND
     1    29    30    1
     2    30    31    1
     3    30    32    1
     4    30    28    1
     5    28    23    1
     6    23    24   ar
     7    24    25   ar
     8    25    18    1
     9    18    19   ar
    10    19    20   ar
    11    20     1    1
    12     1     2    1
    13     1     3    1
    14     3     4   ar
    15     4     5   ar
    16     5     6   ar
    17     6     9    1
    18     9    10   ar
    19    10    11   ar
    20    11    12   ar
    21    12    13    1
    22    12    14   ar
    23    14    15   ar
    24     6     7   ar
    25     7     8   ar
    26     1    34    1
    27    34    35    1
    28    35    36    1
    29    20    21   ar
    30    21    22   ar
    31    25    26   ar
    32    26    27   ar
    33    27    23   ar
    34    22    18   ar
    35     8     3   ar
    36    36    34    1
    37    15     9   ar
    38    32    33    1
    39    13    16    1
    40    13    17    1
@<TRIPOS>MOLECULE
*****
 36 40 0 0 0
SMALL
GASTEIGER

@<TRIPOS>ATOM
      1 C           7.9866   -6.3601   25.4740 C.3     1  UNL1        0.0744
      2 C           8.3943   -7.2474   24.3354 C.3     1  UNL1        0.0121
      3 C           7.8340   -5.2101   24.5231 C.ar    1  UNL1       -0.0159
      4 C           9.0486   -4.5711   23.9179 C.ar    1  UNL1       -0.0039
      5 C           8.8960   -3.4211   22.9670 C.ar    1  UNL1       -0.0002
      6 C           7.5287   -2.9101   22.6214 C.ar    1  UNL1        0.0030
      7 C           6.3141   -3.5491   23.2266 C.ar    1  UNL1       -0.0002
      8 C           6.4667   -4.6991   24.1774 C.ar    1  UNL1       -0.0039
      9 C           7.3761   -1.7600   21.6705 C.ar    1  UNL1        0.0384
     10 C           6.0186   -1.1783   21.4088 C.ar    1  UNL1        0.1033
     11 N           5.8660   -0.0283   20.4578 N.ar    1  UNL1       -0.2125
     12 C           7.0710    0.5400   19.7687 C.ar    1  UNL1        0.2137
     13 N           6.9185    1.6900   18.8178 N.pl3   1  UNL1       -0.3274
     14 N           8.4286   -0.0418   20.0304 N.ar    1  UNL1       -0.2125
     15 C           8.5812   -1.1918   20.9813 C.ar    1  UNL1        0.1033
     16 H           6.0275    2.0718   18.6460 H       1  UNL1        0.1452
     17 H           7.7094    2.0630   18.3655 H       1  UNL1        0.1452
     18 C           7.8073   -9.6355   27.5489 C.ar    1  UNL1        0.2628
     19 N           7.3120   -8.7614   26.4350 N.ar    1  UNL1       -0.1907
     20 C           8.1392   -7.5102   26.4248 C.ar    1  UNL1        0.1837
     21 N           9.1457   -7.6109   27.5324 N.ar    1  UNL1       -0.0599
     22 O           8.9407   -8.9244   28.2271 O.2     1  UNL1       -0.3326
     23 N           5.7319  -12.7845   28.4662 N.ar    1  UNL1       -0.2468
     24 C           5.8169  -11.3326   28.0992 C.ar    1  UNL1        0.1015
     25 C           7.2646  -10.9839   27.9195 C.ar    1  UNL1        0.0956
     26 C           8.0744  -12.2203   28.1753 C.ar    1  UNL1        0.1264
     27 N           7.1272  -13.3331   28.5133 N.ar    1  UNL1       -0.1674
     28 C           4.4727  -13.5529   28.7384 C.3     1  UNL1        0.1541
     29 C           4.0091  -13.9937   26.7159 C.3     1  UNL1        0.0314
     30 C           3.2724  -13.3615   27.8594 C.3     1  UNL1        0.1110
     31 C           2.5358  -12.7293   29.0030 C.3     1  UNL1        0.0314
     32 O           2.0722  -13.1701   26.9804 O.3     1  UNL1       -0.3848
     33 H           2.2626  -13.5143   26.0937 H       1  UNL1        0.2103
     34 C           7.5789   -5.4729   26.6126 C.3     1  UNL1        0.0106
     35 C           7.8405   -4.2877   27.4940 C.3     1  UNL1        0.0008
     36 C           6.6112   -5.1212   27.7034 C.3     1  UNL1        0.0008
@<TRIPOS>BOND
     1    29    30    1
     2    30    31    1
     3    30    32    1
     4    30    28    1
     5    28    23    1
     6    23    24   ar
     7    24    25   ar
     8    25    18    1
     9    18    19   ar
    10    19    20   ar
    11    20     1    1
    12     1     2    1
    13     1     3    1
    14     3     4   ar
    15     4     5   ar
    16     5     6   ar
    17     6     9    1
    18     9    10   ar
    19    10    11   ar
    20    11    12   ar
    21    12    13    1
    22    12    14   ar
    23    14    15   ar
    24     6     7   ar
    25     7     8   ar
    26     1    34    1
    27    34    35    1
    28    35    36    1
    29    20    21   ar
    30    21    22   ar
    31    25    26   ar
    32    26    27   ar
    33    27    23   ar
    34    22    18   ar
    35     8     3   ar
    36    36    34    1
    37    15     9   ar
    38    32    33    1
    39    13    16    1
    40    13    17    1
@<TRIPOS>MOLECULE
*****
 36 40 0 0 0
SMALL
GASTEIGER

@<TRIPOS>ATOM
      1 C           8.1573   -7.0640   26.4936 C.3     1  UNL1        0.0744
      2 C           8.1133   -7.6134   25.0985 C.3     1  UNL1        0.0121
      3 C           8.1905   -5.6690   25.9430 C.ar    1  UNL1       -0.0159
      4 C           6.9156   -4.8949   25.7841 C.ar    1  UNL1       -0.0039
      5 C           6.9488   -3.5000   25.2336 C.ar    1  UNL1       -0.0002
      6 C           8.2570   -2.8791   24.8421 C.ar    1  UNL1        0.0030
      7 C           9.5319   -3.6532   25.0010 C.ar    1  UNL1       -0.0002
      8 C           9.4987   -5.0482   25.5515 C.ar    1  UNL1       -0.0039
      9 C           8.2902   -1.4842   24.2916 C.ar    1  UNL1        0.0384
     10 C           7.1121   -0.9490   23.5329 C.ar    1  UNL1        0.1033
     11 N           7.1453    0.4460   22.9824 N.ar    1  UNL1       -0.2125
     12 C           8.3566    1.3058   23.1906 C.ar    1  UNL1        0.2137
     13 N           8.3899    2.7007   22.6402 N.pl3   1  UNL1       -0.3274
     14 N           9.5348    0.7706   23.9493 N.ar    1  UNL1       -0.2125
     15 C           9.5016   -0.6244   24.4998 C.ar    1  UNL1        0.1033
     16 H           7.6166    3.0519   22.1422 H       1  UNL1        0.1452
     17 H           9.1849    3.2650   22.7768 H       1  UNL1        0.1452
     18 C           7.3332  -10.6351   27.7714 C.ar    1  UNL1        0.2628
     19 N           6.9076   -9.3266   27.1741 N.ar    1  UNL1       -0.1907
     20 C           8.1241   -8.4589   27.0440 C.ar    1  UNL1        0.1837
     21 N           9.3017   -9.2310   27.5610 N.ar    1  UNL1       -0.0599
     22 O           8.8129  -10.5760   28.0106 O.2     1  UNL1       -0.3326
     23 N           4.5328  -13.3036   28.0905 N.ar    1  UNL1       -0.2468
     24 C           5.0616  -12.0213   27.5197 C.ar    1  UNL1        0.1015
     25 C           6.4366  -11.7984   28.0762 C.ar    1  UNL1        0.0956
     26 C           6.7576  -12.9430   28.9909 C.ar    1  UNL1        0.1264
     27 N           5.5810  -13.8733   28.9998 N.ar    1  UNL1       -0.1674
     28 C           3.1913  -13.9100   27.8027 C.3     1  UNL1        0.1541
     29 C           2.4151  -12.6254   29.3017 C.3     1  UNL1        0.0314
     30 C           2.1809  -14.0520   28.9021 C.3     1  UNL1        0.1110
     31 C           1.9468  -15.4788   28.5026 C.3     1  UNL1        0.0314
     32 O           1.1706  -14.1941   30.0016 O.3     1  UNL1       -0.3848
     33 H           1.0955  -13.3549   30.4822 H       1  UNL1        0.2103
     34 C           8.2014   -6.5145   27.8886 C.3     1  UNL1        0.0106
     35 C           8.9789   -5.9321   29.0314 C.3     1  UNL1        0.0008
     36 C           7.5000   -6.1454   29.1621 C.3     1  UNL1        0.0008
@<TRIPOS>BOND
     1    29    30    1
     2    30    31    1
     3    30    32    1
     4    30    28    1
     5    28    23    1
     6    23    24   ar
     7    24    25   ar
     8    25    18    1
     9    18    19   ar
    10    19    20   ar
    11    20     1    1
    12     1     2    1
    13     1     3    1
    14     3     4   ar
    15     4     5   ar
    16     5     6   ar
    17     6     9    1
    18     9    10   ar
    19    10    11   ar
    20    11    12   ar
    21    12    13    1
    22    12    14   ar
    23    14    15   ar
    24     6     7   ar
    25     7     8   ar
    26     1    34    1
    27    34    35    1
    28    35    36    1
    29    20    21   ar
    30    21    22   ar
    31    25    26   ar
    32    26    27   ar
    33    27    23   ar
    34    22    18   ar
    35     8     3   ar
    36    36    34    1
    37    15     9   ar
    38    32    33    1
    39    13    16    1
    40    13    17    1
@<TRIPOS>MOLECULE
*****
 36 40 0 0 0
SMALL
GASTEIGER

@<TRIPOS>ATOM
      1 C           1.6692    0.5777   20.5681 C.3     1  UNL1        0.0744
      2 C           0.7441   -0.5626   20.2616 C.3     1  UNL1        0.0121
      3 C           2.6749   -0.3873   21.1226 C.ar    1  UNL1       -0.0159
      4 C           2.8656   -0.5018   22.6060 C.ar    1  UNL1       -0.0039
      5 C           3.8713   -1.4668   23.1605 C.ar    1  UNL1       -0.0002
      6 C           4.6861   -2.3172   22.2316 C.ar    1  UNL1        0.0030
      7 C           4.4954   -2.2026   20.7482 C.ar    1  UNL1       -0.0002
      8 C           3.4897   -1.2377   20.1938 C.ar    1  UNL1       -0.0039
      9 C           5.6918   -3.2822   22.7862 C.ar    1  UNL1        0.0384
     10 C           5.8135   -3.4688   24.2695 C.ar    1  UNL1        0.1033
     11 N           6.8192   -4.4338   24.8241 N.ar    1  UNL1       -0.2125
     12 C           7.7032   -5.2121   23.8952 C.ar    1  UNL1        0.2137
     13 N           8.7088   -6.1771   24.4497 N.pl3   1  UNL1       -0.3274
     14 N           7.5815   -5.0255   22.4118 N.ar    1  UNL1       -0.2125
     15 C           6.5758   -4.0605   21.8573 C.ar    1  UNL1        0.1033
     16 H           8.7887   -6.2996   25.4233 H       1  UNL1        0.1452
     17 H           9.2890   -6.6879   23.8401 H       1  UNL1        0.1452
     18 C          -1.3146    2.9270   19.7661 C.ar    1  UNL1        0.2628
     19 N          -0.6241    1.9472   20.6679 N.ar    1  UNL1       -0.1907
     20 C           0.6635    1.5426   20.0135 C.ar    1  UNL1        0.1837
     21 N           0.7689    2.2723   18.7072 N.ar    1  UNL1       -0.0599
     22 O          -0.4536    3.1280   18.5542 O.2     1  UNL1       -0.3326
     23 N          -4.4877    4.6734   21.1613 N.ar    1  UNL1       -0.2468
     24 C          -3.1230    4.0831   21.3592 C.ar    1  UNL1        0.1015
     25 C          -2.6342    3.5896   20.0297 C.ar    1  UNL1        0.0956
     26 C          -3.6968    3.8749   19.0102 C.ar    1  UNL1        0.1264
     27 N          -4.8423    4.5448   19.7095 N.ar    1  UNL1       -0.1674
     28 C          -5.3469    5.2851   22.2280 C.3     1  UNL1        0.1541
     29 C          -5.9095    3.6388   23.4417 C.3     1  UNL1        0.0314
     30 C          -6.6480    4.6405   22.6043 C.3     1  UNL1        0.1110
     31 C          -7.3865    5.6422   21.7668 C.3     1  UNL1        0.0314
     32 O          -7.9490    3.9958   22.9806 O.3     1  UNL1       -0.3848
     33 H          -7.7792    3.2462   23.5723 H       1  UNL1        0.2103
     34 C           2.5942    1.7180   20.8746 C.3     1  UNL1        0.0106
     35 C           2.8792    3.0016   21.5964 C.3     1  UNL1        0.0008
     36 C           3.9116    2.4094   20.6836 C.3     1  UNL1        0.0008
@<TRIPOS>BOND
     1    29    30    1
     2    30    31    1
     3    30    32    1
     4    30    28    1
     5    28    23    1
     6    23    24   ar
     7    24    25   ar
     8    25    18    1
     9    18    19   ar
    10    19    20   ar
    11    20     1    1
    12     1     2    1
    13     1     3    1
    14     3     4   ar
    15     4     5   ar
    16     5     6   ar
    17     6     9    1
    18     9    10   ar
    19    10    11   ar
    20    11    12   ar
    21    12    13    1
    22    12    14   ar
    23    14    15   ar
    24     6     7   ar
    25     7     8   ar
    26     1    34    1
    27    34    35    1
    28    35    36    1
    29    20    21   ar
    30    21    22   ar
    31    25    26   ar
    32    26    27   ar
    33    27    23   ar
    34    22    18   ar
    35     8     3   ar
    36    36    34    1
    37    15     9   ar
    38    32    33    1
    39    13    16    1
    40    13    17    1
@<TRIPOS>MOLECULE
*****
 36 40 0 0 0
SMALL
GASTEIGER

@<TRIPOS>ATOM
      1 C           0.8277    1.4641   28.5105 C.3     1  UNL1        0.0744
      2 C           2.0345    2.3109   28.2339 C.3     1  UNL1        0.0121
      3 C           0.2086    1.9267   27.2248 C.ar    1  UNL1       -0.0159
      4 C           0.6730    1.3523   25.9194 C.ar    1  UNL1       -0.0039
      5 C           0.0538    1.8148   24.6339 C.ar    1  UNL1       -0.0002
      6 C          -1.0298    2.8519   24.6538 C.ar    1  UNL1        0.0030
      7 C          -1.4942    3.4263   25.9593 C.ar    1  UNL1       -0.0002
      8 C          -0.8750    2.9637   27.2448 C.ar    1  UNL1       -0.0039
      9 C          -1.6490    3.3144   23.3682 C.ar    1  UNL1        0.0384
     10 C          -0.9441    3.0724   22.0665 C.ar    1  UNL1        0.1033
     11 N          -1.5632    3.5350   20.7809 N.ar    1  UNL1       -0.2125
     12 C          -2.8873    4.2396   20.7971 C.ar    1  UNL1        0.2137
     13 N          -3.5065    4.7022   19.5116 N.pl3   1  UNL1       -0.3274
     14 N          -3.5922    4.4817   22.0989 N.ar    1  UNL1       -0.2125
     15 C          -2.9730    4.0191   23.3844 C.ar    1  UNL1        0.1033
     16 H          -3.0439    4.5433   18.6572 H       1  UNL1        0.1452
     17 H          -4.3756    5.1647   19.5222 H       1  UNL1        0.1452
     18 C           2.3492    0.9859   32.0490 C.ar    1  UNL1        0.2628
     19 N           1.7290    1.8559   30.9962 N.ar    1  UNL1       -0.1907
     20 C           1.4469    1.0016   29.7960 C.ar    1  UNL1        0.1837
     21 N           1.8928   -0.3965   30.1070 N.ar    1  UNL1       -0.0599
     22 O           2.4504   -0.4062   31.4995 O.2     1  UNL1       -0.3326
     23 N           4.0036    1.5862   35.5085 N.ar    1  UNL1       -0.2468
     24 C           3.9136    0.8383   34.2114 C.ar    1  UNL1        0.1015
     25 C           2.7906    1.4299   33.4121 C.ar    1  UNL1        0.0956
     26 C           2.1866    2.5435   34.2152 C.ar    1  UNL1        0.1264
     27 N           2.9362    2.6401   35.5108 N.ar    1  UNL1       -0.1674
     28 C           4.9881    1.3260   36.6099 C.3     1  UNL1        0.1541
     29 C           6.4853    2.6994   35.9999 C.3     1  UNL1        0.0314
     30 C           6.4525    1.2300   36.2997 C.3     1  UNL1        0.1110
     31 C           6.4197   -0.2394   36.5995 C.3     1  UNL1        0.0314
     32 O           7.9169    1.1341   35.9895 O.3     1  UNL1       -0.3848
     33 H           8.2525    2.0092   35.7398 H       1  UNL1        0.2103
     34 C          -0.3791    0.6173   28.7871 C.3     1  UNL1        0.0106
     35 C          -1.1861   -0.6194   28.5242 C.3     1  UNL1        0.0008
     36 C          -1.6623    0.3874   29.5290 C.3     1  UNL1        0.0008
@<TRIPOS>BOND
     1    29    30    1
     2    30    31    1
     3    30    32    1
     4    30    28    1
     5    28    23    1
     6    23    24   ar
     7    24    25   ar
     8    25    18    1
     9    18    19   ar
    10    19    20   ar
    11    20     1    1
    12     1     2    1
    13     1     3    1
    14     3     4   ar
    15     4     5   ar
    16     5     6   ar
    17     6     9    1
    18     9    10   ar
    19    10    11   ar
    20    11    12   ar
    21    12    13    1
    22    12    14   ar
    23    14    15   ar
    24     6     7   ar
    25     7     8   ar
    26     1    34    1
    27    34    35    1
    28    35    36    1
    29    20    21   ar
    30    21    22   ar
    31    25    26   ar
    32    26    27   ar
    33    27    23   ar
    34    22    18   ar
    35     8     3   ar
    36    36    34    1
    37    15     9   ar
    38    32    33    1
    39    13    16    1
    40    13    17    1
@<TRIPOS>MOLECULE
*****
 36 40 0 0 0
SMALL
GASTEIGER

@<TRIPOS>ATOM
      1 C           0.1969    2.1227   28.6297 C.3     1  UNL1        0.0744
      2 C           1.0421    3.3583   28.5353 C.3     1  UNL1        0.0121
      3 C          -0.4328    2.4526   27.3088 C.ar    1  UNL1       -0.0159
      4 C          -1.6644    3.3073   27.2577 C.ar    1  UNL1       -0.0039
      5 C          -2.2941    3.6372   25.9369 C.ar    1  UNL1       -0.0002
      6 C          -1.6922    3.1124   24.6672 C.ar    1  UNL1        0.0030
      7 C          -0.4606    2.2577   24.7182 C.ar    1  UNL1       -0.0002
      8 C           0.1691    1.9279   26.0390 C.ar    1  UNL1       -0.0039
      9 C          -2.3219    3.4423   23.3463 C.ar    1  UNL1        0.0384
     10 C          -1.4723    3.5407   22.1140 C.ar    1  UNL1        0.1033
     11 N          -2.1021    3.8706   20.7932 N.ar    1  UNL1       -0.2125
     12 C          -3.5814    4.1022   20.7046 C.ar    1  UNL1        0.2137
     13 N          -4.2112    4.4321   19.3838 N.pl3   1  UNL1       -0.3274
     14 N          -4.4311    4.0038   21.9369 N.ar    1  UNL1       -0.2125
     15 C          -3.8013    3.6739   23.2577 C.ar    1  UNL1        0.1033
     16 H          -3.6536    4.4967   18.5751 H       1  UNL1        0.1452
     17 H          -5.1822    4.5840   19.3257 H       1  UNL1        0.1452
     18 C           2.3619    0.9445   31.6280 C.ar    1  UNL1        0.2628
     19 N           2.1127    1.0477   30.1524 N.ar    1  UNL1       -0.1907
     20 C           0.8267    1.7928   29.9505 C.ar    1  UNL1        0.1837
     21 N           0.2810    2.1502   31.3012 N.ar    1  UNL1       -0.0599
     22 O           1.2297    1.6259   32.3380 O.2     1  UNL1       -0.3326
     23 N           5.5356   -1.0558   32.6238 N.ar    1  UNL1       -0.2468
     24 C           4.5360   -0.6102   31.5980 C.ar    1  UNL1        0.1015
     25 C           3.5368    0.2771   32.2793 C.ar    1  UNL1        0.0956
     26 C           3.9188    0.3799   33.7261 C.ar    1  UNL1        0.1264
     27 N           5.1541   -0.4439   33.9391 N.ar    1  UNL1       -0.1674
     28 C           6.7104   -1.9555   32.3775 C.3     1  UNL1        0.1541
     29 C           5.1737   -3.2725   33.0129 C.3     1  UNL1        0.0314
     30 C           6.5328   -3.4447   32.4019 C.3     1  UNL1        0.1110
     31 C           7.8919   -3.6167   31.7910 C.3     1  UNL1        0.0314
     32 O           6.3551   -4.9339   32.4263 O.3     1  UNL1       -0.3848
     33 H           5.4882   -5.1499   32.8041 H       1  UNL1        0.2103
     34 C          -0.6482    0.8871   28.7241 C.3     1  UNL1        0.0106
     35 C          -1.8723    0.1864   29.2345 C.3     1  UNL1        0.0008
     36 C          -0.8880   -0.5524   28.3771 C.3     1  UNL1        0.0008
@<TRIPOS>BOND
     1    29    30    1
     2    30    31    1
     3    30    32    1
     4    30    28    1
     5    28    23    1
     6    23    24   ar
     7    24    25   ar
     8    25    18    1
     9    18    19   ar
    10    19    20   ar
    11    20     1    1
    12     1     2    1
    13     1     3    1
    14     3     4   ar
    15     4     5   ar
    16     5     6   ar
    17     6     9    1
    18     9    10   ar
    19    10    11   ar
    20    11    12   ar
    21    12    13    1
    22    12    14   ar
    23    14    15   ar
    24     6     7   ar
    25     7     8   ar
    26     1    34    1
    27    34    35    1
    28    35    36    1
    29    20    21   ar
    30    21    22   ar
    31    25    26   ar
    32    26    27   ar
    33    27    23   ar
    34    22    18   ar
    35     8     3   ar
    36    36    34    1
    37    15     9   ar
    38    32    33    1
    39    13    16    1
    40    13    17    1
