@<TRIPOS>MOLECULE
*****
 37 41 0 0 0
SMALL
GASTEIGER

@<TRIPOS>ATOM
      1 C          -8.8769  -17.4163   23.2759 C.3     1  UNL1        0.0414
      2 C         -10.0784  -16.5226   23.1881 C.3     1  UNL1        0.0741
      3 C         -10.0606  -16.4599   23.0453 C.3     1  UNL1        0.0904
      4 C         -11.4735  -16.8820   22.7703 C.3     1  UNL1        0.0386
      5 C         -12.0968  -16.5922   21.4371 C.3     1  UNL1        0.0594
      6 C         -12.2968  -16.1143   20.0294 C.3     1  UNL1        0.0174
      7 C         -11.0252  -15.4595   19.5772 C.3     1  UNL1        0.0174
      8 C         -10.0394  -15.5328   20.7054 C.3     1  UNL1        0.0594
      9 C          -9.2711  -15.7479   21.9870 C.3     1  UNL1        0.0386
     10 N         -10.7017  -16.2328   21.8549 N.3     1  UNL1       -0.2750
     11 C          -7.8482  -14.6088   24.5712 C.3     1  UNL1        0.0738
     12 C          -8.4203  -15.8988   25.0799 C.ar    1  UNL1        0.1433
     13 N          -8.0759  -16.5645   26.3793 N.ar    1  UNL1       -0.1337
     14 N          -8.8799  -17.8266   26.4809 N.ar    1  UNL1       -0.1337
     15 C          -9.7213  -17.9411   25.2444 C.ar    1  UNL1        0.1425
     16 N          -9.4372  -16.7496   24.3785 N.ar    1  UNL1       -0.3039
     17 C         -10.6786  -19.0520   24.9291 C.3     1  UNL1        0.0588
     18 C         -10.1644  -20.4415   24.6953 C.3     1  UNL1        0.0080
     19 C         -12.1503  -18.7733   24.8475 C.3     1  UNL1        0.0080
     20 C          -8.3400  -18.0747   22.0398 C.3     1  UNL1        0.0959
     21 C          -9.2440  -18.9088   21.1813 C.ar    1  UNL1        0.0025
     22 C         -10.3277  -19.8234   21.6703 C.ar    1  UNL1        0.0048
     23 C         -10.9765  -20.4545   20.4742 C.ar    1  UNL1        0.0352
     24 S         -10.2938  -19.9298   19.2458 S.2     1  UNL1       -0.0862
     25 C          -9.2231  -18.9745   19.6828 C.ar    1  UNL1        0.0328
     26 N          -6.8989  -17.8991   21.6620 N.am    1  UNL1       -0.3021
     27 C          -5.9810  -19.0852   21.6339 C.2     1  UNL1        0.2222
     28 O          -6.5041  -20.4468   21.9837 O.2     1  UNL1       -0.2751
     29 H          -6.5556  -17.0055   21.4324 H       1  UNL1        0.1497
     30 C          -4.5401  -18.9096   21.2561 C.3     1  UNL1        0.0769
     31 C          -4.1265  -18.9940   19.8168 C.3     1  UNL1        0.0147
     32 C          -2.6855  -18.8184   19.4389 C.3     1  UNL1        0.0671
     33 C          -1.6582  -18.5584   20.5006 C.3     1  UNL1        0.2640
     34 F          -0.3265  -18.2960   21.1393 F       1  UNL1       -0.2043
     35 F          -0.7821  -18.5517   19.2830 F       1  UNL1       -0.2043
     36 C          -2.0717  -18.4740   21.9399 C.3     1  UNL1        0.0671
     37 C          -3.5127  -18.6496   22.3177 C.3     1  UNL1        0.0147
@<TRIPOS>BOND
     1    11    12    1
     2    12    13   ar
     3    13    14   ar
     4    14    15   ar
     5    15    17    1
     6    17    18    1
     7    17    19    1
     8    15    16   ar
     9     3    16    1
    10     3     4    1
    11     5     4    1
    12     5     6    1
    13     6     7    1
    14     8     7    1
    15     8     9    1
    16     8    10    1
    17    10     2    1
    18     2     1    1
    19    20     1    1
    20    20    26    1
    21    26    27   am
    22    27    28    2
    23    27    30    1
    24    30    31    1
    25    31    32    1
    26    32    33    1
    27    33    34    1
    28    33    35    1
    29    33    36    1
    30    36    37    1
    31    20    21    1
    32    21    22   ar
    33    22    23   ar
    34    23    24   ar
    35    24    25   ar
    36    16    12   ar
    37     9     3    1
    38    37    30    1
    39    25    21   ar
    40    10     5    1
    41    26    29    1
@<TRIPOS>MOLECULE
*****
 37 41 0 0 0
SMALL
GASTEIGER

@<TRIPOS>ATOM
      1 C          -8.0329  -17.8669   23.1423 C.3     1  UNL1        0.0414
      2 C          -8.1362  -18.4365   21.7585 C.3     1  UNL1        0.0741
      3 C          -8.0384  -18.5573   21.7807 C.3     1  UNL1        0.0904
      4 C          -7.4731  -18.2475   20.4263 C.3     1  UNL1        0.0386
      5 C          -6.3547  -19.0795   19.8723 C.3     1  UNL1        0.0594
      6 C          -5.2931  -20.1297   19.7297 C.3     1  UNL1        0.0174
      7 C          -5.3002  -20.9677   20.9738 C.3     1  UNL1        0.0174
      8 C          -6.3661  -20.4354   21.8852 C.3     1  UNL1        0.0594
      9 C          -7.4853  -19.6991   22.5811 C.3     1  UNL1        0.0386
     10 N          -7.0178  -19.2684   21.2044 N.3     1  UNL1       -0.2750
     11 C          -8.3453  -15.3210   21.4948 C.3     1  UNL1        0.0738
     12 C          -9.2980  -16.2378   22.2034 C.ar    1  UNL1        0.1433
     13 N         -10.5589  -15.8280   22.9050 N.ar    1  UNL1       -0.1337
     14 N         -11.1970  -17.0623   23.4700 N.ar    1  UNL1       -0.1337
     15 C         -10.3306  -18.2349   23.1177 C.ar    1  UNL1        0.1425
     16 N          -9.1569  -17.7254   22.3348 N.ar    1  UNL1       -0.3039
     17 C         -10.5919  -19.6659   23.4838 C.3     1  UNL1        0.0588
     18 C         -11.1163  -20.6202   22.4522 C.3     1  UNL1        0.0080
     19 C         -10.3288  -20.1425   24.8816 C.3     1  UNL1        0.0080
     20 C          -6.8246  -17.0708   23.5373 C.3     1  UNL1        0.0959
     21 C          -6.8225  -16.2991   24.8236 C.ar    1  UNL1        0.0025
     22 C          -5.6915  -15.4666   25.3505 C.ar    1  UNL1        0.0048
     23 C          -6.1212  -14.8774   26.6613 C.ar    1  UNL1        0.0352
     24 S          -7.5178  -15.3457   26.9445 S.2     1  UNL1       -0.0862
     25 C          -7.9513  -16.2244   25.8087 C.ar    1  UNL1        0.0328
     26 N          -5.6182  -17.0464   22.6461 N.am    1  UNL1       -0.3021
     27 C          -4.3240  -17.6389   23.1194 C.2     1  UNL1        0.2222
     28 O          -4.2362  -18.2559   24.4838 O.2     1  UNL1       -0.2751
     29 H          -5.6759  -16.6415   21.7506 H       1  UNL1        0.1497
     30 C          -3.1177  -17.6145   22.2283 C.3     1  UNL1        0.0769
     31 C          -2.4063  -16.3205   21.9644 C.3     1  UNL1        0.0147
     32 C          -1.1999  -16.2960   21.0732 C.3     1  UNL1        0.0671
     33 C          -0.7051  -17.5656   20.4460 C.3     1  UNL1        0.2640
     34 F           0.1387  -18.4981   19.6284 F       1  UNL1       -0.2043
     35 F           0.2994  -16.5955   19.8982 F       1  UNL1       -0.2043
     36 C          -1.4165  -18.8595   20.7098 C.3     1  UNL1        0.0671
     37 C          -2.6228  -18.8840   21.6010 C.3     1  UNL1        0.0147
@<TRIPOS>BOND
     1    11    12    1
     2    12    13   ar
     3    13    14   ar
     4    14    15   ar
     5    15    17    1
     6    17    18    1
     7    17    19    1
     8    15    16   ar
     9     3    16    1
    10     3     4    1
    11     5     4    1
    12     5     6    1
    13     6     7    1
    14     8     7    1
    15     8     9    1
    16     8    10    1
    17    10     2    1
    18     2     1    1
    19    20     1    1
    20    20    26    1
    21    26    27   am
    22    27    28    2
    23    27    30    1
    24    30    31    1
    25    31    32    1
    26    32    33    1
    27    33    34    1
    28    33    35    1
    29    33    36    1
    30    36    37    1
    31    20    21    1
    32    21    22   ar
    33    22    23   ar
    34    23    24   ar
    35    24    25   ar
    36    16    12   ar
    37     9     3    1
    38    37    30    1
    39    25    21   ar
    40    10     5    1
    41    26    29    1
@<TRIPOS>MOLECULE
*****
 37 41 0 0 0
SMALL
GASTEIGER

@<TRIPOS>ATOM
      1 C          -8.2929  -17.1734   23.8005 C.3     1  UNL1        0.0414
      2 C          -9.5813  -16.4133   23.9112 C.3     1  UNL1        0.0741
      3 C          -9.6666  -16.5301   23.9724 C.3     1  UNL1        0.0904
      4 C         -10.7686  -16.1055   23.0477 C.3     1  UNL1        0.0386
      5 C         -12.0757  -16.8414   23.0509 C.3     1  UNL1        0.0594
      6 C         -13.1587  -17.8242   23.3845 C.3     1  UNL1        0.0174
      7 C         -12.6407  -18.7394   24.4540 C.3     1  UNL1        0.0174
      8 C         -11.2376  -18.3223   24.7816 C.3     1  UNL1        0.0594
      9 C          -9.8715  -17.6907   24.9003 C.3     1  UNL1        0.0386
     10 N         -10.8883  -17.1493   23.9144 N.3     1  UNL1       -0.2750
     11 C          -8.2405  -15.1645   21.3742 C.3     1  UNL1        0.0738
     12 C          -7.7040  -15.1664   22.7750 C.ar    1  UNL1        0.1433
     13 N          -6.4178  -14.5411   23.2275 N.ar    1  UNL1       -0.1337
     14 N          -6.2785  -14.7823   24.7013 N.ar    1  UNL1       -0.1337
     15 C          -7.4784  -15.5567   25.1598 C.ar    1  UNL1        0.1425
     16 N          -8.3594  -15.7941   23.9693 N.ar    1  UNL1       -0.3039
     17 C          -7.7497  -16.0135   26.5626 C.3     1  UNL1        0.0588
     18 C          -6.9851  -17.1696   27.1360 C.3     1  UNL1        0.0080
     19 C          -8.7858  -15.3143   27.3920 C.3     1  UNL1        0.0080
     20 C          -7.9473  -17.8817   22.5244 C.3     1  UNL1        0.0959
     21 C          -8.9781  -18.7212   21.8297 C.ar    1  UNL1        0.0025
     22 C          -9.6246  -19.9580   22.3796 C.ar    1  UNL1        0.0048
     23 C         -10.5895  -20.4724   21.3528 C.ar    1  UNL1        0.0352
     24 S         -10.5393  -19.5536   20.1682 S.2     1  UNL1       -0.0862
     25 C          -9.5435  -18.4713   20.4629 C.ar    1  UNL1        0.0328
     26 N          -6.5708  -17.7507   21.9427 N.am    1  UNL1       -0.3021
     27 C          -5.6857  -18.9566   21.8313 C.2     1  UNL1        0.2222
     28 O          -6.1771  -20.2936   22.3015 O.2     1  UNL1       -0.2751
     29 H          -6.2483  -16.8732   21.6341 H       1  UNL1        0.1497
     30 C          -4.3093  -18.8255   21.2497 C.3     1  UNL1        0.0769
     31 C          -4.1177  -18.8553   19.7623 C.3     1  UNL1        0.0147
     32 C          -2.7412  -18.7243   19.1806 C.3     1  UNL1        0.0671
     33 C          -1.5565  -18.5634   20.0864 C.3     1  UNL1        0.2640
     34 F          -0.1335  -18.3922   20.5290 F       1  UNL1       -0.2043
     35 F          -0.8707  -18.5337   18.7527 F       1  UNL1       -0.2043
     36 C          -1.7481  -18.5336   21.5739 C.3     1  UNL1        0.0671
     37 C          -3.1245  -18.6647   22.1555 C.3     1  UNL1        0.0147
@<TRIPOS>BOND
     1    11    12    1
     2    12    13   ar
     3    13    14   ar
     4    14    15   ar
     5    15    17    1
     6    17    18    1
     7    17    19    1
     8    15    16   ar
     9     3    16    1
    10     3     4    1
    11     5     4    1
    12     5     6    1
    13     6     7    1
    14     8     7    1
    15     8     9    1
    16     8    10    1
    17    10     2    1
    18     2     1    1
    19    20     1    1
    20    20    26    1
    21    26    27   am
    22    27    28    2
    23    27    30    1
    24    30    31    1
    25    31    32    1
    26    32    33    1
    27    33    34    1
    28    33    35    1
    29    33    36    1
    30    36    37    1
    31    20    21    1
    32    21    22   ar
    33    22    23   ar
    34    23    24   ar
    35    24    25   ar
    36    16    12   ar
    37     9     3    1
    38    37    30    1
    39    25    21   ar
    40    10     5    1
    41    26    29    1
@<TRIPOS>MOLECULE
*****
 37 41 0 0 0
SMALL
GASTEIGER

@<TRIPOS>ATOM
      1 C          -8.1883  -18.4822   23.3479 C.3     1  UNL1        0.0414
      2 C          -8.4171  -19.0236   21.9678 C.3     1  UNL1        0.0741
      3 C          -8.2956  -19.1228   21.9598 C.3     1  UNL1        0.0904
      4 C          -8.0189  -18.5504   20.6012 C.3     1  UNL1        0.0386
      5 C          -6.8618  -19.0600   19.7942 C.3     1  UNL1        0.0594
      6 C          -5.6535  -19.8398   19.3674 C.3     1  UNL1        0.0174
      7 C          -5.3050  -20.7949   20.4702 C.3     1  UNL1        0.0174
      8 C          -6.2978  -20.6054   21.5786 C.3     1  UNL1        0.0594
      9 C          -7.4151  -20.2047   22.5114 C.3     1  UNL1        0.0386
     10 N          -7.2599  -19.5332   21.1608 N.3     1  UNL1       -0.2750
     11 C          -9.6387  -20.6079   24.5367 C.3     1  UNL1        0.0738
     12 C         -10.0701  -19.2958   23.9514 C.ar    1  UNL1        0.1433
     13 N         -11.1946  -18.4360   24.4478 N.ar    1  UNL1       -0.1337
     14 N         -11.2721  -17.2221   23.5701 N.ar    1  UNL1       -0.1337
     15 C         -10.1957  -17.3316   22.5314 C.ar    1  UNL1        0.1425
     16 N          -9.4528  -18.6132   22.7670 N.ar    1  UNL1       -0.3039
     17 C          -9.9119  -16.3345   21.4472 C.3     1  UNL1        0.0588
     18 C          -8.7950  -15.3465   21.6105 C.3     1  UNL1        0.0080
     19 C         -10.7449  -16.3253   20.1998 C.3     1  UNL1        0.0080
     20 C          -7.1127  -17.4641   23.5854 C.3     1  UNL1        0.0959
     21 C          -7.2262  -16.5073   24.7350 C.ar    1  UNL1        0.0025
     22 C          -8.4092  -16.3589   25.6452 C.ar    1  UNL1        0.0048
     23 C          -8.0907  -15.2908   26.6490 C.ar    1  UNL1        0.0352
     24 S          -6.7108  -14.7790   26.3591 S.2     1  UNL1       -0.0862
     25 C          -6.1765  -15.5308   25.1762 C.ar    1  UNL1        0.0328
     26 N          -5.9234  -17.4027   22.6732 N.am    1  UNL1       -0.3021
     27 C          -4.5558  -17.7191   23.2017 C.2     1  UNL1        0.2222
     28 O          -4.3773  -18.0969   24.6424 O.2     1  UNL1       -0.2751
     29 H          -6.0406  -17.1548   21.7277 H       1  UNL1        0.1497
     30 C          -3.3666  -17.6577   22.2896 C.3     1  UNL1        0.0769
     31 C          -2.9068  -18.8924   21.5727 C.3     1  UNL1        0.0147
     32 C          -1.7175  -18.8311   20.6604 C.3     1  UNL1        0.0671
     33 C          -0.9882  -17.5349   20.4653 C.3     1  UNL1        0.2640
     34 F           0.0229  -16.5486   19.9601 F       1  UNL1       -0.2043
     35 F          -0.1772  -18.4271   19.5729 F       1  UNL1       -0.2043
     36 C          -1.4480  -16.3002   21.1822 C.3     1  UNL1        0.0671
     37 C          -2.6372  -16.3616   22.0944 C.3     1  UNL1        0.0147
@<TRIPOS>BOND
     1    11    12    1
     2    12    13   ar
     3    13    14   ar
     4    14    15   ar
     5    15    17    1
     6    17    18    1
     7    17    19    1
     8    15    16   ar
     9     3    16    1
    10     3     4    1
    11     5     4    1
    12     5     6    1
    13     6     7    1
    14     8     7    1
    15     8     9    1
    16     8    10    1
    17    10     2    1
    18     2     1    1
    19    20     1    1
    20    20    26    1
    21    26    27   am
    22    27    28    2
    23    27    30    1
    24    30    31    1
    25    31    32    1
    26    32    33    1
    27    33    34    1
    28    33    35    1
    29    33    36    1
    30    36    37    1
    31    20    21    1
    32    21    22   ar
    33    22    23   ar
    34    23    24   ar
    35    24    25   ar
    36    16    12   ar
    37     9     3    1
    38    37    30    1
    39    25    21   ar
    40    10     5    1
    41    26    29    1
@<TRIPOS>MOLECULE
*****
 37 41 0 0 0
SMALL
GASTEIGER

@<TRIPOS>ATOM
      1 C           4.6223   -0.7961   19.8236 C.3     1  UNL1        0.0414
      2 C           3.4938   -0.6839   18.8418 C.3     1  UNL1        0.0741
      3 C           3.3643   -0.6906   18.9303 C.3     1  UNL1        0.0904
      4 C           2.9794    0.6279   18.3274 C.3     1  UNL1        0.0386
      5 C           1.6964    1.2915   18.7319 C.3     1  UNL1        0.0594
      6 C           0.3847    1.5706   19.4038 C.3     1  UNL1        0.0174
      7 C           0.0885    0.4314   20.3335 C.3     1  UNL1        0.0174
      8 C           1.2172   -0.5519   20.2362 C.3     1  UNL1        0.0594
      9 C           2.4663   -1.3454   19.9377 C.3     1  UNL1        0.0386
     10 N           2.2109   -0.0203   19.2463 N.3     1  UNL1       -0.2750
     11 C           5.7129    0.6344   17.0923 C.3     1  UNL1        0.0738
     12 C           5.7268   -0.7452   17.6810 C.ar    1  UNL1        0.1433
     13 N           6.8227   -1.7580   17.5282 N.ar    1  UNL1       -0.1337
     14 N           6.4204   -2.9929   18.2786 N.ar    1  UNL1       -0.1337
     15 C           5.0760   -2.7434   18.8951 C.ar    1  UNL1        0.1425
     16 N           4.6473   -1.3543   18.5258 N.ar    1  UNL1       -0.3039
     17 C           4.2970   -3.7129   19.7338 C.3     1  UNL1        0.0588
     18 C           3.2104   -4.5386   19.1114 C.3     1  UNL1        0.0080
     19 C           4.6045   -3.8566   21.1949 C.3     1  UNL1        0.0080
     20 C           4.9240    0.3422   20.7526 C.3     1  UNL1        0.0959
     21 C           6.2366    1.0618   20.6556 C.ar    1  UNL1        0.0025
     22 C           7.5955    0.4315   20.7322 C.ar    1  UNL1        0.0048
     23 C           8.6193    1.5183   20.5888 C.ar    1  UNL1        0.0352
     24 S           7.8932    2.8204   20.4237 S.2     1  UNL1       -0.0862
     25 C           6.4205    2.5383   20.4649 C.ar    1  UNL1        0.0328
     26 N           3.9132    0.7611   21.7788 N.am    1  UNL1       -0.3021
     27 C           3.8319    0.0378   23.0903 C.2     1  UNL1        0.2222
     28 O           4.7614   -1.1044   23.3758 O.2     1  UNL1       -0.2751
     29 H           3.3032    1.5107   21.5915 H       1  UNL1        0.1497
     30 C           2.8212    0.4566   24.1164 C.3     1  UNL1        0.0769
     31 C           1.4319    0.8301   23.6918 C.3     1  UNL1        0.0147
     32 C           0.4210    1.2490   24.7179 C.3     1  UNL1        0.0671
     33 C           0.7996    1.2944   26.1686 C.3     1  UNL1        0.2640
     34 F           0.6814    1.4935   27.6506 F       1  UNL1       -0.2043
     35 F          -0.6308    1.7370   26.2586 F       1  UNL1       -0.2043
     36 C           2.1890    0.9209   26.5933 C.3     1  UNL1        0.0671
     37 C           3.1997    0.5021   25.5672 C.3     1  UNL1        0.0147
@<TRIPOS>BOND
     1    11    12    1
     2    12    13   ar
     3    13    14   ar
     4    14    15   ar
     5    15    17    1
     6    17    18    1
     7    17    19    1
     8    15    16   ar
     9     3    16    1
    10     3     4    1
    11     5     4    1
    12     5     6    1
    13     6     7    1
    14     8     7    1
    15     8     9    1
    16     8    10    1
    17    10     2    1
    18     2     1    1
    19    20     1    1
    20    20    26    1
    21    26    27   am
    22    27    28    2
    23    27    30    1
    24    30    31    1
    25    31    32    1
    26    32    33    1
    27    33    34    1
    28    33    35    1
    29    33    36    1
    30    36    37    1
    31    20    21    1
    32    21    22   ar
    33    22    23   ar
    34    23    24   ar
    35    24    25   ar
    36    16    12   ar
    37     9     3    1
    38    37    30    1
    39    25    21   ar
    40    10     5    1
    41    26    29    1
@<TRIPOS>MOLECULE
*****
 37 41 0 0 0
SMALL
GASTEIGER

@<TRIPOS>ATOM
      1 C           4.8555   -0.1309   19.3156 C.3     1  UNL1        0.0414
      2 C           3.5335   -0.6474   18.8303 C.3     1  UNL1        0.0741
      3 C           3.4491   -0.5153   18.8204 C.3     1  UNL1        0.0904
      4 C           2.4090   -1.2110   19.6475 C.3     1  UNL1        0.0386
      5 C           1.1431   -0.4962   20.0170 C.3     1  UNL1        0.0594
      6 C           0.0844    0.5593   20.1393 C.3     1  UNL1        0.0174
      7 C           0.5546    1.7754   19.3976 C.3     1  UNL1        0.0174
      8 C           1.9038    1.4714   18.8169 C.3     1  UNL1        0.0594
      9 C           3.2233    0.8953   18.3629 C.3     1  UNL1        0.0386
     10 N           2.2676    0.0674   19.1998 N.3     1  UNL1       -0.2750
     11 C           5.8213    0.6503   16.9063 C.3     1  UNL1        0.0738
     12 C           5.8054   -0.6943   17.5710 C.ar    1  UNL1        0.1433
     13 N           6.8771   -1.7392   17.4727 N.ar    1  UNL1       -0.1337
     14 N           6.4491   -2.9206   18.2917 N.ar    1  UNL1       -0.1337
     15 C           5.1129   -2.6061   18.8962 C.ar    1  UNL1        0.1425
     16 N           4.7151   -1.2301   18.4509 N.ar    1  UNL1       -0.3039
     17 C           4.3147   -3.5089   19.7894 C.3     1  UNL1        0.0588
     18 C           3.3163   -4.4586   19.1967 C.3     1  UNL1        0.0080
     19 C           4.5147   -3.4620   21.2753 C.3     1  UNL1        0.0080
     20 C           5.0959    0.0512   20.7849 C.3     1  UNL1        0.0959
     21 C           6.4971    0.0605   21.3201 C.ar    1  UNL1        0.0025
     22 C           7.4660   -1.0837   21.2746 C.ar    1  UNL1        0.0048
     23 C           8.7431   -0.6356   21.9213 C.ar    1  UNL1        0.0352
     24 S           8.5635    0.7856   22.3664 S.2     1  UNL1       -0.0862
     25 C           7.1754    1.2158   21.9949 C.ar    1  UNL1        0.0328
     26 N           3.9351    0.2239   21.7191 N.am    1  UNL1       -0.3021
     27 C           3.4124    1.5973   22.0200 C.2     1  UNL1        0.2222
     28 O           4.0505    2.7980   21.3867 O.2     1  UNL1       -0.2751
     29 H           3.5163   -0.5642   22.1348 H       1  UNL1        0.1497
     30 C           2.2517    1.7700   22.9543 C.3     1  UNL1        0.0769
     31 C           1.9928    0.7519   24.0250 C.3     1  UNL1        0.0147
     32 C           0.8320    0.9245   24.9593 C.3     1  UNL1        0.0671
     33 C          -0.0698    2.1153   24.8227 C.3     1  UNL1        0.2640
     34 F          -1.1977    3.0673   25.0904 F       1  UNL1       -0.2043
     35 F          -0.7204    1.4278   25.9864 F       1  UNL1       -0.2043
     36 C           0.1890    3.1334   23.7520 C.3     1  UNL1        0.0671
     37 C           1.3497    2.9607   22.8178 C.3     1  UNL1        0.0147
@<TRIPOS>BOND
     1    11    12    1
     2    12    13   ar
     3    13    14   ar
     4    14    15   ar
     5    15    17    1
     6    17    18    1
     7    17    19    1
     8    15    16   ar
     9     3    16    1
    10     3     4    1
    11     5     4    1
    12     5     6    1
    13     6     7    1
    14     8     7    1
    15     8     9    1
    16     8    10    1
    17    10     2    1
    18     2     1    1
    19    20     1    1
    20    20    26    1
    21    26    27   am
    22    27    28    2
    23    27    30    1
    24    30    31    1
    25    31    32    1
    26    32    33    1
    27    33    34    1
    28    33    35    1
    29    33    36    1
    30    36    37    1
    31    20    21    1
    32    21    22   ar
    33    22    23   ar
    34    23    24   ar
    35    24    25   ar
    36    16    12   ar
    37     9     3    1
    38    37    30    1
    39    25    21   ar
    40    10     5    1
    41    26    29    1
@<TRIPOS>MOLECULE
*****
 37 41 0 0 0
SMALL
GASTEIGER

@<TRIPOS>ATOM
      1 C           5.2359   -0.5911   20.4576 C.3     1  UNL1        0.0414
      2 C           4.4852   -1.1617   19.2910 C.3     1  UNL1        0.0741
      3 C           4.5503   -1.2977   19.2472 C.3     1  UNL1        0.0904
      4 C           3.2685   -1.9558   19.6642 C.3     1  UNL1        0.0386
      5 C           3.1095   -3.4412   19.5288 C.3     1  UNL1        0.0594
      6 C           3.3871   -4.8841   19.2271 C.3     1  UNL1        0.0174
      7 C           4.7754   -4.9817   18.6674 C.3     1  UNL1        0.0174
      8 C           5.3557   -3.5992   18.6232 C.3     1  UNL1        0.0594
      9 C           5.6731   -2.1250   18.6948 C.3     1  UNL1        0.0386
     10 N           4.3261   -2.6471   19.1556 N.3     1  UNL1       -0.2750
     11 C           7.3721    0.3411   19.2025 C.3     1  UNL1        0.0738
     12 C           6.0064    0.9410   19.3621 C.ar    1  UNL1        0.1433
     13 N           5.6981    2.3994   19.5291 N.ar    1  UNL1       -0.1337
     14 N           4.2106    2.5475   19.6528 N.ar    1  UNL1       -0.1337
     15 C           3.5996    1.1806   19.5623 C.ar    1  UNL1        0.1425
     16 N           4.7095    0.1877   19.3826 N.ar    1  UNL1       -0.3039
     17 C           2.1357    0.8625   19.6382 C.3     1  UNL1        0.0588
     18 C           1.4740    0.6896   20.9732 C.3     1  UNL1        0.0080
     19 C           1.3334    0.7171   18.3791 C.3     1  UNL1        0.0080
     20 C           5.0570   -1.1804   21.8252 C.3     1  UNL1        0.0959
     21 C           4.3399   -0.4030   22.8890 C.ar    1  UNL1        0.0025
     22 C           3.3100   -0.9459   23.8348 C.ar    1  UNL1        0.0048
     23 C           2.8605    0.1753   24.7240 C.ar    1  UNL1        0.0352
     24 S           3.6126    1.4112   24.3278 S.2     1  UNL1       -0.0862
     25 C           4.5269    1.0538   23.1937 C.ar    1  UNL1        0.0328
     26 N           5.5953   -2.5471   22.1294 N.am    1  UNL1       -0.3021
     27 C           6.9210   -2.6956   22.8152 C.2     1  UNL1        0.2222
     28 O           7.7085   -1.4773   23.1970 O.2     1  UNL1       -0.2751
     29 H           5.0784   -3.3467   21.8788 H       1  UNL1        0.1497
     30 C           7.4592   -4.0623   23.1193 C.3     1  UNL1        0.0769
     31 C           8.3289   -4.7653   22.1197 C.3     1  UNL1        0.0147
     32 C           8.8671   -6.1321   22.4237 C.3     1  UNL1        0.0671
     33 C           8.5355   -6.7956   23.7275 C.3     1  UNL1        0.2640
     34 F           8.5020   -7.8280   24.8152 F       1  UNL1       -0.2043
     35 F           9.3936   -7.8572   23.1056 F       1  UNL1       -0.2043
     36 C           7.6658   -6.0926   24.7271 C.3     1  UNL1        0.0671
     37 C           7.1276   -4.7259   24.4230 C.3     1  UNL1        0.0147
@<TRIPOS>BOND
     1    11    12    1
     2    12    13   ar
     3    13    14   ar
     4    14    15   ar
     5    15    17    1
     6    17    18    1
     7    17    19    1
     8    15    16   ar
     9     3    16    1
    10     3     4    1
    11     5     4    1
    12     5     6    1
    13     6     7    1
    14     8     7    1
    15     8     9    1
    16     8    10    1
    17    10     2    1
    18     2     1    1
    19    20     1    1
    20    20    26    1
    21    26    27   am
    22    27    28    2
    23    27    30    1
    24    30    31    1
    25    31    32    1
    26    32    33    1
    27    33    34    1
    28    33    35    1
    29    33    36    1
    30    36    37    1
    31    20    21    1
    32    21    22   ar
    33    22    23   ar
    34    23    24   ar
    35    24    25   ar
    36    16    12   ar
    37     9     3    1
    38    37    30    1
    39    25    21   ar
    40    10     5    1
    41    26    29    1
@<TRIPOS>MOLECULE
*****
 37 41 0 0 0
SMALL
GASTEIGER

@<TRIPOS>ATOM
      1 C           3.5940   -0.0055   19.7969 C.3     1  UNL1        0.0414
      2 C           3.9441   -0.8783   18.6283 C.3     1  UNL1        0.0741
      3 C           3.8880   -1.0099   18.6930 C.3     1  UNL1        0.0904
      4 C           5.0472   -1.7216   18.0607 C.3     1  UNL1        0.0386
      5 C           5.2145   -3.1998   18.2522 C.3     1  UNL1        0.0594
      6 C           4.9900   -4.6156   18.6941 C.3     1  UNL1        0.0174
      7 C           3.7482   -4.6472   19.5349 C.3     1  UNL1        0.0174
      8 C           3.2052   -3.2511   19.6125 C.3     1  UNL1        0.0594
      9 C           2.8963   -1.7765   19.5169 C.3     1  UNL1        0.0386
     10 N           4.1115   -2.3565   18.8198 N.3     1  UNL1       -0.2750
     11 C           1.0785    0.6410   18.8685 C.3     1  UNL1        0.0738
     12 C           2.4292    1.2273   18.5822 C.ar    1  UNL1        0.1433
     13 N           2.7257    2.6752   18.3263 N.ar    1  UNL1       -0.1337
     14 N           4.2002    2.8113   18.0875 N.ar    1  UNL1       -0.1337
     15 C           4.8152    1.4475   18.1958 C.ar    1  UNL1        0.1425
     16 N           3.7206    0.4685   18.5015 N.ar    1  UNL1       -0.3039
     17 C           6.2693    1.1201   18.0279 C.3     1  UNL1        0.0588
     18 C           7.1921    1.1764   19.2091 C.3     1  UNL1        0.0080
     19 C           6.8009    0.7363   16.6787 C.3     1  UNL1        0.0080
     20 C           4.5181    0.0758   20.9756 C.3     1  UNL1        0.0959
     21 C           4.4445    1.2495   21.9068 C.ar    1  UNL1        0.0025
     22 C           3.2901    2.1979   22.0407 C.ar    1  UNL1        0.0048
     23 C           3.6446    3.2153   23.0843 C.ar    1  UNL1        0.0352
     24 S           5.0181    2.8957   23.5954 S.2     1  UNL1       -0.0862
     25 C           5.5125    1.6808   22.8678 C.ar    1  UNL1        0.0328
     26 N           5.5159   -1.0166   21.2233 N.am    1  UNL1       -0.3021
     27 C           5.2407   -2.0621   22.2630 C.2     1  UNL1        0.2222
     28 O           3.9677   -2.0154   23.0551 O.2     1  UNL1       -0.2751
     29 H           6.3514   -1.0472   20.7034 H       1  UNL1        0.1497
     30 C           6.2384   -3.1544   22.5106 C.3     1  UNL1        0.0769
     31 C           6.2935   -3.8307   23.8483 C.3     1  UNL1        0.0147
     32 C           7.2913   -4.9231   24.0960 C.3     1  UNL1        0.0671
     33 C           8.2339   -5.3390   23.0058 C.3     1  UNL1        0.2640
     34 F           9.3276   -6.0792   22.2945 F       1  UNL1       -0.2043
     35 F           8.6689   -6.2724   24.0965 F       1  UNL1       -0.2043
     36 C           8.1788   -4.6628   21.6680 C.3     1  UNL1        0.0671
     37 C           7.1810   -3.5705   21.4204 C.3     1  UNL1        0.0147
@<TRIPOS>BOND
     1    11    12    1
     2    12    13   ar
     3    13    14   ar
     4    14    15   ar
     5    15    17    1
     6    17    18    1
     7    17    19    1
     8    15    16   ar
     9     3    16    1
    10     3     4    1
    11     5     4    1
    12     5     6    1
    13     6     7    1
    14     8     7    1
    15     8     9    1
    16     8    10    1
    17    10     2    1
    18     2     1    1
    19    20     1    1
    20    20    26    1
    21    26    27   am
    22    27    28    2
    23    27    30    1
    24    30    31    1
    25    31    32    1
    26    32    33    1
    27    33    34    1
    28    33    35    1
    29    33    36    1
    30    36    37    1
    31    20    21    1
    32    21    22   ar
    33    22    23   ar
    34    23    24   ar
    35    24    25   ar
    36    16    12   ar
    37     9     3    1
    38    37    30    1
    39    25    21   ar
    40    10     5    1
    41    26    29    1
@<TRIPOS>MOLECULE
*****
 37 41 0 0 0
SMALL
GASTEIGER

@<TRIPOS>ATOM
      1 C           4.7742   -0.3781   19.3811 C.3     1  UNL1        0.0414
      2 C           3.4338   -0.8723   18.9238 C.3     1  UNL1        0.0741
      3 C           3.3402   -0.7486   18.8990 C.3     1  UNL1        0.0904
      4 C           2.4775   -1.2794   20.0053 C.3     1  UNL1        0.0386
      5 C           1.2316   -0.5448   20.4031 C.3     1  UNL1        0.0594
      6 C           0.1323    0.4743   20.4577 C.3     1  UNL1        0.0174
      7 C           0.4093    1.5113   19.4099 C.3     1  UNL1        0.0174
      8 C           1.6797    1.1331   18.7078 C.3     1  UNL1        0.0594
      9 C           2.9571    0.5168   18.1905 C.3     1  UNL1        0.0386
     10 N           2.1880   -0.1376   19.3216 N.3     1  UNL1       -0.2750
     11 C           5.8171    0.4759   17.1626 C.3     1  UNL1        0.0738
     12 C           5.7246   -0.9204   17.7030 C.ar    1  UNL1        0.1433
     13 N           6.7543   -1.9989   17.5402 N.ar    1  UNL1       -0.1337
     14 N           6.2522   -3.2282   18.2377 N.ar    1  UNL1       -0.1337
     15 C           4.9122   -2.9096   18.8316 C.ar    1  UNL1        0.1425
     16 N           4.5861   -1.4832   18.5012 N.ar    1  UNL1       -0.3039
     17 C           4.0496   -3.8518   19.6179 C.3     1  UNL1        0.0588
     18 C           4.2929   -4.0438   21.0855 C.3     1  UNL1        0.0080
     19 C           2.9437   -4.6021   18.9366 C.3     1  UNL1        0.0080
     20 C           4.9616    0.0798   20.7971 C.3     1  UNL1        0.0959
     21 C           4.9165    1.5430   21.1244 C.ar    1  UNL1        0.0025
     22 C           3.7059    2.3109   21.5656 C.ar    1  UNL1        0.0048
     23 C           4.1154    3.7376   21.7818 C.ar    1  UNL1        0.0352
     24 S           5.5792    3.8514   21.4742 S.2     1  UNL1       -0.0862
     25 C           6.0743    2.4951   21.0679 C.ar    1  UNL1        0.0328
     26 N           5.1941   -0.9254   21.8860 N.am    1  UNL1       -0.3021
     27 C           6.5433   -1.5614   22.0440 C.2     1  UNL1        0.2222
     28 O           7.6602   -1.1922   21.1132 O.2     1  UNL1       -0.2751
     29 H           4.4611   -1.1677   22.4969 H       1  UNL1        0.1497
     30 C           6.7758   -2.5666   23.1328 C.3     1  UNL1        0.0769
     31 C           6.2622   -2.3044   24.5176 C.3     1  UNL1        0.0147
     32 C           6.4947   -3.3096   25.6065 C.3     1  UNL1        0.0671
     33 C           7.2406   -4.5769   25.3105 C.3     1  UNL1        0.2640
     34 F           7.8861   -5.9145   25.5209 F       1  UNL1       -0.2043
     35 F           6.9512   -4.7793   26.7683 F       1  UNL1       -0.2043
     36 C           7.7542   -4.8390   23.9257 C.3     1  UNL1        0.0671
     37 C           7.5217   -3.8338   22.8369 C.3     1  UNL1        0.0147
@<TRIPOS>BOND
     1    11    12    1
     2    12    13   ar
     3    13    14   ar
     4    14    15   ar
     5    15    17    1
     6    17    18    1
     7    17    19    1
     8    15    16   ar
     9     3    16    1
    10     3     4    1
    11     5     4    1
    12     5     6    1
    13     6     7    1
    14     8     7    1
    15     8     9    1
    16     8    10    1
    17    10     2    1
    18     2     1    1
    19    20     1    1
    20    20    26    1
    21    26    27   am
    22    27    28    2
    23    27    30    1
    24    30    31    1
    25    31    32    1
    26    32    33    1
    27    33    34    1
    28    33    35    1
    29    33    36    1
    30    36    37    1
    31    20    21    1
    32    21    22   ar
    33    22    23   ar
    34    23    24   ar
    35    24    25   ar
    36    16    12   ar
    37     9     3    1
    38    37    30    1
    39    25    21   ar
    40    10     5    1
    41    26    29    1
