@<TRIPOS>MOLECULE
*****
 33 35 0 0 0
SMALL
GASTEIGER

@<TRIPOS>ATOM
      1 C          -6.4552  -16.2330   24.2803 C.3     1  UNL1        0.0638
      2 C          -5.3665  -15.8441   25.2361 C.3     1  UNL1        0.0220
      3 C          -5.7153  -15.2477   26.5676 C.3     1  UNL1        0.0680
      4 C          -7.1525  -15.0402   26.9432 C.3     1  UNL1        0.2640
      5 F          -8.3571  -14.6507   27.7478 F       1  UNL1       -0.2043
      6 F          -6.4823  -14.5160   28.1785 F       1  UNL1       -0.2043
      7 C          -8.2412  -15.4291   25.9874 C.3     1  UNL1        0.0680
      8 C          -7.8924  -16.0256   24.6559 C.3     1  UNL1        0.0220
      9 N          -2.8416  -17.4017   21.8666 N.3     1  UNL1       -0.1566
     10 C          -3.8954  -18.4217   22.1810 C.3     1  UNL1        0.1128
     11 C          -5.0999  -18.0322   22.9856 C.3     1  UNL1        0.0915
     12 N          -5.2506  -16.6226   23.4757 N.3     1  UNL1       -0.2711
     13 C          -4.1968  -15.6025   23.1613 C.3     1  UNL1        0.0915
     14 C          -2.9923  -15.9921   22.3567 C.3     1  UNL1        0.1128
     15 S          -1.6370  -17.7912   21.0620 S.O2    1  UNL1        0.0439
     16 O          -1.2843  -16.3435   20.8891 O.2     1  UNL1       -0.1573
     17 O          -1.9898  -19.2389   21.2348 O.2     1  UNL1       -0.1573
     18 C          -0.4325  -18.1807   20.2574 C.3     1  UNL1        0.1691
     19 C          -1.7186  -17.8099   18.0306 C.3     1  UNL1        0.0019
     20 C          -0.4249  -17.9761   18.7715 C.3     1  UNL1        0.0270
     21 C          -7.1254  -16.7572   23.0450 C.3     1  UNL1        0.1042
     22 N          -8.6221  -16.7523   22.9443 N.am    1  UNL1       -0.2994
     23 C          -9.3746  -18.0489   22.8935 C.2     1  UNL1        0.2503
     24 O          -8.6306  -19.3503   22.9433 O.2     1  UNL1       -0.2700
     25 H          -9.1104  -15.8981   22.9116 H       1  UNL1        0.1498
     26 C         -10.8713  -18.0439   22.7927 C.ar    1  UNL1        0.1081
     27 C         -11.5336  -17.7484   21.4798 C.ar    1  UNL1        0.1466
     28 F         -10.6993  -17.4578   20.2674 F       1  UNL1       -0.2039
     29 C         -13.0302  -17.7434   21.3790 C.ar    1  UNL1        0.0299
     30 C         -13.8644  -18.0340   22.5913 C.ar    1  UNL1        0.0046
     31 C         -13.2021  -18.3295   23.9043 C.ar    1  UNL1        0.0299
     32 C         -11.7055  -18.3345   24.0050 C.ar    1  UNL1        0.1466
     33 F         -11.0431  -18.6300   25.3179 F       1  UNL1       -0.2039
@<TRIPOS>BOND
     1    19    20    1
     2    20    18    1
     3    18    15    1
     4    15    16    2
     5    15    17    2
     6    15     9    1
     7     9    10    1
     8    10    11    1
     9    11    12    1
    10    12     1    1
    11     1    21    1
    12    21    22    1
    13    22    23   am
    14    23    24    2
    15    23    26    1
    16    26    27   ar
    17    27    28    1
    18    27    29   ar
    19    29    30   ar
    20    30    31   ar
    21    31    32   ar
    22    32    33    1
    23     1     2    1
    24     2     3    1
    25     3     4    1
    26     4     5    1
    27     4     6    1
    28     4     7    1
    29     7     8    1
    30    12    13    1
    31    13    14    1
    32    14     9    1
    33     8     1    1
    34    32    26   ar
    35    22    25    1
@<TRIPOS>MOLECULE
*****
 33 35 0 0 0
SMALL
GASTEIGER

@<TRIPOS>ATOM
      1 C          -6.4496  -16.2204   24.2801 C.3     1  UNL1        0.0638
      2 C          -5.3646  -15.8336   25.2410 C.3     1  UNL1        0.0220
      3 C          -5.7186  -15.2453   26.5747 C.3     1  UNL1        0.0680
      4 C          -7.1575  -15.0438   26.9475 C.3     1  UNL1        0.2640
      5 F          -8.3652  -14.6620   27.7509 F       1  UNL1       -0.2043
      6 F          -6.4920  -14.5244   28.1873 F       1  UNL1       -0.2043
      7 C          -8.2424  -15.4306   25.9866 C.3     1  UNL1        0.0680
      8 C          -7.8884  -16.0189   24.6529 C.3     1  UNL1        0.0220
      9 N          -2.8262  -17.3659   21.8699 N.3     1  UNL1       -0.1566
     10 C          -3.8682  -18.3954   22.1931 C.3     1  UNL1        0.1128
     11 C          -5.0760  -18.0135   22.9965 C.3     1  UNL1        0.0915
     12 N          -5.2418  -16.6022   23.4767 N.3     1  UNL1       -0.2711
     13 C          -4.1998  -15.5728   23.1536 C.3     1  UNL1        0.0915
     14 C          -2.9920  -15.9546   22.3502 C.3     1  UNL1        0.1128
     15 S          -1.6185  -17.7478   21.0665 S.O2    1  UNL1        0.0439
     16 O          -1.2782  -16.2977   20.8888 O.2     1  UNL1       -0.1573
     17 O          -1.9587  -19.1978   21.2442 O.2     1  UNL1       -0.1573
     18 C          -0.4107  -18.1296   20.2631 C.3     1  UNL1        0.1691
     19 C          -1.7505  -17.7694   18.0666 C.3     1  UNL1        0.0019
     20 C          -0.4590  -18.0763   18.7649 C.3     1  UNL1        0.0270
     21 C          -7.1150  -16.7398   23.0402 C.3     1  UNL1        0.1042
     22 N          -8.6114  -16.7376   22.9351 N.am    1  UNL1       -0.2994
     23 C          -9.3613  -18.0356   22.8812 C.2     1  UNL1        0.2503
     24 O          -8.6150  -19.3357   22.9325 O.2     1  UNL1       -0.2700
     25 H          -9.1013  -15.8843   22.9015 H       1  UNL1        0.1498
     26 C         -10.8577  -18.0334   22.7761 C.ar    1  UNL1        0.1081
     27 C         -11.6951  -18.3155   23.9881 C.ar    1  UNL1        0.1466
     28 F         -11.0362  -18.5998   25.3054 F       1  UNL1       -0.2039
     29 C         -13.1914  -18.3133   23.8831 C.ar    1  UNL1        0.0299
     30 C         -13.8502  -18.0291   22.5658 C.ar    1  UNL1        0.0046
     31 C         -13.0129  -17.7470   21.3537 C.ar    1  UNL1        0.0299
     32 C         -11.5165  -17.7492   21.4589 C.ar    1  UNL1        0.1466
     33 F         -10.6791  -17.4671   20.2468 F       1  UNL1       -0.2039
@<TRIPOS>BOND
     1    19    20    1
     2    20    18    1
     3    18    15    1
     4    15    16    2
     5    15    17    2
     6    15     9    1
     7     9    10    1
     8    10    11    1
     9    11    12    1
    10    12     1    1
    11     1    21    1
    12    21    22    1
    13    22    23   am
    14    23    24    2
    15    23    26    1
    16    26    27   ar
    17    27    28    1
    18    27    29   ar
    19    29    30   ar
    20    30    31   ar
    21    31    32   ar
    22    32    33    1
    23     1     2    1
    24     2     3    1
    25     3     4    1
    26     4     5    1
    27     4     6    1
    28     4     7    1
    29     7     8    1
    30    12    13    1
    31    13    14    1
    32    14     9    1
    33     8     1    1
    34    32    26   ar
    35    22    25    1
@<TRIPOS>MOLECULE
*****
 33 35 0 0 0
SMALL
GASTEIGER

@<TRIPOS>ATOM
      1 C          -8.1600  -19.4695   20.7109 C.3     1  UNL1        0.0638
      2 C          -9.5497  -18.9372   20.5232 C.3     1  UNL1        0.0220
      3 C         -10.3443  -19.3255   19.3116 C.3     1  UNL1        0.0680
      4 C          -9.7491  -20.2460   18.2878 C.3     1  UNL1        0.2640
      5 F          -9.6211  -21.0826   17.0493 F       1  UNL1       -0.2043
      6 F         -11.0944  -20.0043   17.6699 F       1  UNL1       -0.2043
      7 C          -8.3593  -20.7783   18.4755 C.3     1  UNL1        0.0680
      8 C          -7.5648  -20.3900   19.6871 C.3     1  UNL1        0.0220
      9 N          -8.5440  -16.9597   24.4262 N.3     1  UNL1       -0.1566
     10 C          -9.1834  -18.3153   24.3675 C.3     1  UNL1        0.1128
     11 C          -9.0554  -19.1519   23.1290 C.3     1  UNL1        0.0915
     12 N          -8.2880  -18.6329   21.9493 N.3     1  UNL1       -0.2711
     13 C          -7.6486  -17.2773   22.0081 C.3     1  UNL1        0.0915
     14 C          -7.7766  -16.4407   23.2465 C.3     1  UNL1        0.1128
     15 S          -8.6720  -16.1231   25.6646 S.O2    1  UNL1        0.0439
     16 O          -8.9843  -17.3536   26.4636 O.2     1  UNL1       -0.1573
     17 O          -8.3598  -14.8926   24.8657 O.2     1  UNL1       -0.1573
     18 C          -8.8000  -15.2865   26.9031 C.3     1  UNL1        0.1691
     19 C          -6.2393  -15.4731   27.2999 C.3     1  UNL1        0.0019
     20 C          -7.5937  -15.0134   27.7517 C.3     1  UNL1        0.0270
     21 C          -6.8147  -19.7112   21.3288 C.3     1  UNL1        0.1042
     22 N          -5.5965  -19.0496   20.7558 N.am    1  UNL1       -0.2994
     23 C          -4.3302  -18.9866   21.5574 C.2     1  UNL1        0.2503
     24 O          -4.2822  -19.5851   22.9320 O.2     1  UNL1       -0.2700
     25 H          -5.6280  -18.6567   19.8536 H       1  UNL1        0.1498
     26 C          -3.1120  -18.3250   20.9845 C.ar    1  UNL1        0.1081
     27 C          -2.4554  -17.1954   21.7213 C.ar    1  UNL1        0.1466
     28 F          -3.0171  -16.7273   23.0311 F       1  UNL1       -0.2039
     29 C          -1.2372  -16.5338   21.1484 C.ar    1  UNL1        0.0299
     30 C          -0.6756  -17.0018   19.8386 C.ar    1  UNL1        0.0046
     31 C          -1.3321  -18.1314   19.1017 C.ar    1  UNL1        0.0299
     32 C          -2.5504  -18.7930   19.6747 C.ar    1  UNL1        0.1466
     33 F          -3.2069  -19.9225   18.9379 F       1  UNL1       -0.2039
@<TRIPOS>BOND
     1    19    20    1
     2    20    18    1
     3    18    15    1
     4    15    16    2
     5    15    17    2
     6    15     9    1
     7     9    10    1
     8    10    11    1
     9    11    12    1
    10    12     1    1
    11     1    21    1
    12    21    22    1
    13    22    23   am
    14    23    24    2
    15    23    26    1
    16    26    27   ar
    17    27    28    1
    18    27    29   ar
    19    29    30   ar
    20    30    31   ar
    21    31    32   ar
    22    32    33    1
    23     1     2    1
    24     2     3    1
    25     3     4    1
    26     4     5    1
    27     4     6    1
    28     4     7    1
    29     7     8    1
    30    12    13    1
    31    13    14    1
    32    14     9    1
    33     8     1    1
    34    32    26   ar
    35    22    25    1
@<TRIPOS>MOLECULE
*****
 33 35 0 0 0
SMALL
GASTEIGER

@<TRIPOS>ATOM
      1 C          -7.8312  -16.3223   24.3670 C.3     1  UNL1        0.0638
      2 C          -8.8288  -17.2294   25.0243 C.3     1  UNL1        0.0220
      3 C          -9.0763  -17.1279   26.5003 C.3     1  UNL1        0.0680
      4 C          -8.3263  -16.1193   27.3189 C.3     1  UNL1        0.2640
      5 F          -7.8674  -15.3306   28.5094 F       1  UNL1       -0.2043
      6 F          -9.1645  -16.7525   28.3897 F       1  UNL1       -0.2043
      7 C          -7.3288  -15.2122   26.6616 C.3     1  UNL1        0.0680
      8 C          -7.0812  -15.3137   25.1856 C.3     1  UNL1        0.0220
      9 N          -9.2079  -18.6885   20.7955 N.3     1  UNL1       -0.1566
     10 C          -9.6544  -17.2673   20.9710 C.3     1  UNL1        0.1128
     11 C          -9.1955  -16.4786   22.1615 C.3     1  UNL1        0.0915
     12 N          -8.2901  -17.1110   23.1765 N.3     1  UNL1       -0.2711
     13 C          -7.8436  -18.5322   23.0010 C.3     1  UNL1        0.0915
     14 C          -8.3025  -19.3209   21.8104 C.3     1  UNL1        0.1128
     15 S          -9.6668  -19.4772   19.6050 S.O2    1  UNL1        0.0439
     16 O         -10.9706  -19.7560   20.2922 O.2     1  UNL1       -0.1573
     17 O          -8.3630  -19.1984   18.9177 O.2     1  UNL1       -0.1573
     18 C         -10.1257  -20.2659   18.4145 C.3     1  UNL1        0.1691
     19 C          -9.2788  -21.4317   16.2526 C.3     1  UNL1        0.0019
     20 C          -9.1828  -21.2130   17.7335 C.3     1  UNL1        0.0270
     21 C          -6.9931  -15.6891   23.2962 C.3     1  UNL1        0.1042
     22 N          -5.9903  -16.5126   22.5436 N.am    1  UNL1       -0.2994
     23 C          -4.6695  -16.8448   23.1720 C.2     1  UNL1        0.2503
     24 O          -4.3513  -16.3535   24.5531 O.2     1  UNL1       -0.2700
     25 H          -6.1992  -16.8350   21.6371 H       1  UNL1        0.1498
     26 C          -3.6668  -17.6683   22.4193 C.ar    1  UNL1        0.1081
     27 C          -3.8990  -19.1370   22.2222 C.ar    1  UNL1        0.1466
     28 F          -5.1340  -19.7823   22.7777 F       1  UNL1       -0.2039
     29 C          -2.8963  -19.9605   21.4695 C.ar    1  UNL1        0.0299
     30 C          -1.6614  -19.3152   20.9140 C.ar    1  UNL1        0.0046
     31 C          -1.4292  -17.8465   21.1111 C.ar    1  UNL1        0.0299
     32 C          -2.4319  -17.0230   21.8638 C.ar    1  UNL1        0.1466
     33 F          -2.1997  -15.5543   22.0610 F       1  UNL1       -0.2039
@<TRIPOS>BOND
     1    19    20    1
     2    20    18    1
     3    18    15    1
     4    15    16    2
     5    15    17    2
     6    15     9    1
     7     9    10    1
     8    10    11    1
     9    11    12    1
    10    12     1    1
    11     1    21    1
    12    21    22    1
    13    22    23   am
    14    23    24    2
    15    23    26    1
    16    26    27   ar
    17    27    28    1
    18    27    29   ar
    19    29    30   ar
    20    30    31   ar
    21    31    32   ar
    22    32    33    1
    23     1     2    1
    24     2     3    1
    25     3     4    1
    26     4     5    1
    27     4     6    1
    28     4     7    1
    29     7     8    1
    30    12    13    1
    31    13    14    1
    32    14     9    1
    33     8     1    1
    34    32    26   ar
    35    22    25    1
@<TRIPOS>MOLECULE
*****
 33 35 0 0 0
SMALL
GASTEIGER

@<TRIPOS>ATOM
      1 C           7.3514   -4.9461   25.6574 C.3     1  UNL1        0.0638
      2 C           8.0773   -6.0329   26.3936 C.3     1  UNL1        0.0220
      3 C           8.7645   -7.1261   25.6303 C.3     1  UNL1        0.0680
      4 C           8.7257   -7.1326   24.1308 C.3     1  UNL1        0.2640
      5 F           8.9683   -7.5692   22.7164 F       1  UNL1       -0.2043
      6 F           9.5359   -8.3710   24.3758 F       1  UNL1       -0.2043
      7 C           7.9998   -6.0459   23.3946 C.3     1  UNL1        0.0680
      8 C           7.3127   -4.9526   24.1579 C.3     1  UNL1        0.0220
      9 N           6.6236   -3.6364   29.9006 N.3     1  UNL1       -0.1566
     10 C           6.7487   -5.0957   29.5771 C.3     1  UNL1        0.1128
     11 C           6.9913   -5.5323   28.1627 C.3     1  UNL1        0.0915
     12 N           7.1088   -4.5095   27.0718 N.3     1  UNL1       -0.2711
     13 C           6.9837   -3.0502   27.3953 C.3     1  UNL1        0.0915
     14 C           6.7411   -2.6136   28.8097 C.3     1  UNL1        0.1128
     15 S           6.3810   -3.1998   31.3150 S.O2    1  UNL1        0.0439
     16 O           6.1279   -1.7999   30.8395 O.2     1  UNL1       -0.1573
     17 O           6.6341   -4.5998   31.7905 O.2     1  UNL1       -0.1573
     18 C           6.1384   -2.7633   32.7294 C.3     1  UNL1        0.1691
     19 C           4.3808   -1.4925   34.1598 C.3     1  UNL1        0.0019
     20 C           4.7353   -2.6241   33.2412 C.3     1  UNL1        0.0270
     21 C           6.5413   -3.7077   25.4124 C.3     1  UNL1        0.1042
     22 N           5.7317   -3.5773   24.1563 N.am    1  UNL1       -0.2994
     23 C           5.3475   -2.2189   23.6493 C.2     1  UNL1        0.2503
     24 O           5.7728   -0.9909   24.3984 O.2     1  UNL1       -0.2700
     25 H           5.4526   -4.3833   23.6647 H       1  UNL1        0.1498
     26 C           4.5380   -2.0885   22.3932 C.ar    1  UNL1        0.1081
     27 C           3.3226   -1.2097   22.3721 C.ar    1  UNL1        0.1466
     28 F           2.9166   -0.4613   23.6071 F       1  UNL1       -0.2039
     29 C           2.5131   -1.0793   21.1161 C.ar    1  UNL1        0.0299
     30 C           2.9191   -1.8277   19.8811 C.ar    1  UNL1        0.0046
     31 C           4.1345   -2.7065   19.9022 C.ar    1  UNL1        0.0299
     32 C           4.9440   -2.8369   21.1583 C.ar    1  UNL1        0.1466
     33 F           6.1594   -3.7157   21.1795 F       1  UNL1       -0.2039
@<TRIPOS>BOND
     1    19    20    1
     2    20    18    1
     3    18    15    1
     4    15    16    2
     5    15    17    2
     6    15     9    1
     7     9    10    1
     8    10    11    1
     9    11    12    1
    10    12     1    1
    11     1    21    1
    12    21    22    1
    13    22    23   am
    14    23    24    2
    15    23    26    1
    16    26    27   ar
    17    27    28    1
    18    27    29   ar
    19    29    30   ar
    20    30    31   ar
    21    31    32   ar
    22    32    33    1
    23     1     2    1
    24     2     3    1
    25     3     4    1
    26     4     5    1
    27     4     6    1
    28     4     7    1
    29     7     8    1
    30    12    13    1
    31    13    14    1
    32    14     9    1
    33     8     1    1
    34    32    26   ar
    35    22    25    1
@<TRIPOS>MOLECULE
*****
 33 35 0 0 0
SMALL
GASTEIGER

@<TRIPOS>ATOM
      1 C           1.5886    0.9756   26.5154 C.3     1  UNL1        0.0638
      2 C           0.6151    1.3749   27.5844 C.3     1  UNL1        0.0220
      3 C          -0.6748    2.0440   27.2122 C.3     1  UNL1        0.0680
      4 C          -0.9911    2.3138   25.7710 C.3     1  UNL1        0.2640
      5 F          -1.7353    2.7783   24.5543 F       1  UNL1       -0.2043
      6 F          -2.2231    2.8745   26.4174 F       1  UNL1       -0.2043
      7 C          -0.0176    1.9145   24.7020 C.3     1  UNL1        0.0680
      8 C           1.2722    1.2454   25.0742 C.3     1  UNL1        0.0220
      9 N           3.8211   -0.4180   30.1656 N.3     1  UNL1       -0.1566
     10 C           4.5505    0.3000   29.0690 C.3     1  UNL1        0.1128
     11 C           3.8063    0.7645   27.8522 C.3     1  UNL1        0.0915
     12 N           2.3328    0.5111   27.7321 N.3     1  UNL1       -0.2711
     13 C           1.6034   -0.2069   28.8287 C.3     1  UNL1        0.0915
     14 C           2.3476   -0.6714   30.0455 C.3     1  UNL1        0.1128
     15 S           4.5653   -0.8825   31.3823 S.O2    1  UNL1        0.0439
     16 O           3.2844   -1.3970   31.9693 O.2     1  UNL1       -0.1573
     17 O           5.8462   -0.3680   30.7953 O.2     1  UNL1       -0.1573
     18 C           5.3095   -1.3470   32.5990 C.3     1  UNL1        0.1691
     19 C           6.5122   -3.6067   32.1551 C.3     1  UNL1        0.0019
     20 C           5.4593   -2.8143   32.8718 C.3     1  UNL1        0.0270
     21 C           2.8206    0.4149   25.8690 C.3     1  UNL1        0.1042
     22 N           2.7092   -0.3633   24.5914 N.am    1  UNL1       -0.2994
     23 C           3.9488   -0.8234   23.8831 C.2     1  UNL1        0.2503
     24 O           5.2997   -0.5053   24.4523 O.2     1  UNL1       -0.2700
     25 H           1.8226   -0.5720   24.2178 H       1  UNL1        0.1498
     26 C           3.8375   -1.6015   22.6055 C.ar    1  UNL1        0.1081
     27 C           3.1497   -0.9978   21.4172 C.ar    1  UNL1        0.1466
     28 F           2.5730    0.3841   21.5063 F       1  UNL1       -0.2039
     29 C           3.0383   -1.7759   20.1396 C.ar    1  UNL1        0.0299
     30 C           3.6149   -3.1578   20.0505 C.ar    1  UNL1        0.0046
     31 C           4.3028   -3.7616   21.2389 C.ar    1  UNL1        0.0299
     32 C           4.4141   -2.9834   22.5165 C.ar    1  UNL1        0.1466
     33 F           5.1019   -3.5871   23.7049 F       1  UNL1       -0.2039
@<TRIPOS>BOND
     1    19    20    1
     2    20    18    1
     3    18    15    1
     4    15    16    2
     5    15    17    2
     6    15     9    1
     7     9    10    1
     8    10    11    1
     9    11    12    1
    10    12     1    1
    11     1    21    1
    12    21    22    1
    13    22    23   am
    14    23    24    2
    15    23    26    1
    16    26    27   ar
    17    27    28    1
    18    27    29   ar
    19    29    30   ar
    20    30    31   ar
    21    31    32   ar
    22    32    33    1
    23     1     2    1
    24     2     3    1
    25     3     4    1
    26     4     5    1
    27     4     6    1
    28     4     7    1
    29     7     8    1
    30    12    13    1
    31    13    14    1
    32    14     9    1
    33     8     1    1
    34    32    26   ar
    35    22    25    1
@<TRIPOS>MOLECULE
*****
 33 35 0 0 0
SMALL
GASTEIGER

@<TRIPOS>ATOM
      1 C          -8.7425  -17.9627   22.0073 C.3     1  UNL1        0.0638
      2 C          -9.9048  -17.0289   22.1712 C.3     1  UNL1        0.0220
      3 C         -11.0293  -17.0498   21.1786 C.3     1  UNL1        0.0680
      4 C         -10.9914  -18.0044   20.0223 C.3     1  UNL1        0.2640
      5 F         -11.4073  -18.7212   18.7720 F       1  UNL1       -0.2043
      6 F         -12.2983  -17.3196   19.7519 F       1  UNL1       -0.2043
      7 C          -9.8290  -18.9382   19.8584 C.3     1  UNL1        0.0680
      8 C          -8.7045  -18.9174   20.8510 C.3     1  UNL1        0.0220
      9 N          -7.4947  -15.8123   25.7582 N.3     1  UNL1       -0.1566
     10 C          -6.7743  -15.5508   24.4688 C.3     1  UNL1        0.1128
     11 C          -7.1902  -16.2676   23.2185 C.3     1  UNL1        0.0915
     12 N          -8.3265  -17.2459   23.2576 N.3     1  UNL1       -0.2711
     13 C          -9.0469  -17.5074   24.5470 C.3     1  UNL1        0.0915
     14 C          -8.6310  -16.7906   25.7973 C.3     1  UNL1        0.1128
     15 S          -7.0787  -15.0955   27.0084 S.O2    1  UNL1        0.0439
     16 O          -8.5001  -15.1069   27.4878 O.2     1  UNL1       -0.1573
     17 O          -5.6574  -15.0841   26.5291 O.2     1  UNL1       -0.1573
     18 C          -6.6628  -14.3787   28.2587 C.3     1  UNL1        0.1691
     19 C          -6.5702  -11.9749   29.2400 C.3     1  UNL1        0.0019
     20 C          -7.3590  -13.1137   28.6649 C.3     1  UNL1        0.0270
     21 C          -7.4356  -18.6476   22.2777 C.3     1  UNL1        0.1042
     22 N          -6.1876  -18.1806   21.5889 N.am    1  UNL1       -0.2994
     23 C          -4.8828  -18.8729   21.8505 C.2     1  UNL1        0.2503
     24 O          -4.8261  -20.0320   22.8008 O.2     1  UNL1       -0.2700
     25 H          -6.2248  -17.4199   20.9651 H       1  UNL1        0.1498
     26 C          -3.6348  -18.4060   21.1616 C.ar    1  UNL1        0.1081
     27 C          -2.8609  -17.2469   21.7162 C.ar    1  UNL1        0.1466
     28 F          -3.3349  -16.5547   22.9597 F       1  UNL1       -0.2039
     29 C          -1.6129  -16.7800   21.0275 C.ar    1  UNL1        0.0299
     30 C          -1.1388  -17.4722   19.7840 C.ar    1  UNL1        0.0046
     31 C          -1.9127  -18.6312   19.2293 C.ar    1  UNL1        0.0299
     32 C          -3.1607  -19.0981   19.9182 C.ar    1  UNL1        0.1466
     33 F          -3.9346  -20.2572   19.3636 F       1  UNL1       -0.2039
@<TRIPOS>BOND
     1    19    20    1
     2    20    18    1
     3    18    15    1
     4    15    16    2
     5    15    17    2
     6    15     9    1
     7     9    10    1
     8    10    11    1
     9    11    12    1
    10    12     1    1
    11     1    21    1
    12    21    22    1
    13    22    23   am
    14    23    24    2
    15    23    26    1
    16    26    27   ar
    17    27    28    1
    18    27    29   ar
    19    29    30   ar
    20    30    31   ar
    21    31    32   ar
    22    32    33    1
    23     1     2    1
    24     2     3    1
    25     3     4    1
    26     4     5    1
    27     4     6    1
    28     4     7    1
    29     7     8    1
    30    12    13    1
    31    13    14    1
    32    14     9    1
    33     8     1    1
    34    32    26   ar
    35    22    25    1
@<TRIPOS>MOLECULE
*****
 33 35 0 0 0
SMALL
GASTEIGER

@<TRIPOS>ATOM
      1 C           1.7883    0.7574   27.0369 C.3     1  UNL1        0.0638
      2 C           0.8279    1.1630   28.1154 C.3     1  UNL1        0.0220
      3 C          -0.4695    1.8237   27.7547 C.3     1  UNL1        0.0680
      4 C          -0.8066    2.0789   26.3156 C.3     1  UNL1        0.2640
      5 F          -1.5692    2.5292   25.1049 F       1  UNL1       -0.2043
      6 F          -2.0318    2.6409   26.9736 F       1  UNL1       -0.2043
      7 C           0.1538    1.6733   25.2370 C.3     1  UNL1        0.0680
      8 C           1.4512    1.0125   25.5978 C.3     1  UNL1        0.0220
      9 N           4.0760   -0.5936   30.6689 N.3     1  UNL1       -0.1566
     10 C           4.7972    0.0645   29.5302 C.3     1  UNL1        0.1128
     11 C           4.0346    0.5148   28.3195 C.3     1  UNL1        0.0915
     12 N           2.5509    0.3071   28.2476 N.3     1  UNL1       -0.2711
     13 C           1.8297   -0.3510   29.3863 C.3     1  UNL1        0.0915
     14 C           2.5922   -0.8014   30.5969 C.3     1  UNL1        0.1128
     15 S           4.8386   -1.0439   31.8795 S.O2    1  UNL1        0.0439
     16 O           5.9935   -0.1766   31.4747 O.2     1  UNL1       -0.1573
     17 O           3.6836   -1.9112   32.2844 O.2     1  UNL1       -0.1573
     18 C           5.6011   -1.4942   33.0902 C.3     1  UNL1        0.1691
     19 C           4.7408   -0.3410   35.2535 C.3     1  UNL1        0.0019
     20 C           5.8207   -0.5480   34.2331 C.3     1  UNL1        0.0270
     21 C           3.0135    0.1954   26.3789 C.3     1  UNL1        0.1042
     22 N           2.9028   -0.4919   25.0502 N.am    1  UNL1       -0.2994
     23 C           4.1392   -0.9680   24.3468 C.2     1  UNL1        0.2503
     24 O           5.4861   -0.7569   24.9721 O.2     1  UNL1       -0.2700
     25 H           2.0187   -0.6305   24.6398 H       1  UNL1        0.1498
     26 C           4.0285   -1.6553   23.0181 C.ar    1  UNL1        0.1081
     27 C           4.6292   -3.0161   22.8252 C.ar    1  UNL1        0.1466
     28 F           5.3407   -3.6898   23.9611 F       1  UNL1       -0.2039
     29 C           4.5186   -3.7034   21.4966 C.ar    1  UNL1        0.0299
     30 C           3.8072   -3.0298   20.3607 C.ar    1  UNL1        0.0046
     31 C           3.2064   -1.6690   20.5535 C.ar    1  UNL1        0.0299
     32 C           3.3171   -0.9817   21.8822 C.ar    1  UNL1        0.1466
     33 F           2.7164    0.3791   22.0751 F       1  UNL1       -0.2039
@<TRIPOS>BOND
     1    19    20    1
     2    20    18    1
     3    18    15    1
     4    15    16    2
     5    15    17    2
     6    15     9    1
     7     9    10    1
     8    10    11    1
     9    11    12    1
    10    12     1    1
    11     1    21    1
    12    21    22    1
    13    22    23   am
    14    23    24    2
    15    23    26    1
    16    26    27   ar
    17    27    28    1
    18    27    29   ar
    19    29    30   ar
    20    30    31   ar
    21    31    32   ar
    22    32    33    1
    23     1     2    1
    24     2     3    1
    25     3     4    1
    26     4     5    1
    27     4     6    1
    28     4     7    1
    29     7     8    1
    30    12    13    1
    31    13    14    1
    32    14     9    1
    33     8     1    1
    34    32    26   ar
    35    22    25    1
@<TRIPOS>MOLECULE
*****
 33 35 0 0 0
SMALL
GASTEIGER

@<TRIPOS>ATOM
      1 C           6.2742   -2.4716   30.9878 C.3     1  UNL1        0.0638
      2 C           6.4625   -3.6072   31.9496 C.3     1  UNL1        0.0220
      3 C           6.8909   -4.9535   31.4458 C.3     1  UNL1        0.0680
      4 C           7.1309   -5.1644   29.9803 C.3     1  UNL1        0.2640
      5 F           7.4782   -5.8526   28.6935 F       1  UNL1       -0.2043
      6 F           7.4399   -6.5389   30.4951 F       1  UNL1       -0.2043
      7 C           6.9426   -4.0288   29.0185 C.3     1  UNL1        0.0680
      8 C           6.5142   -2.6824   29.5223 C.3     1  UNL1        0.0220
      9 N           5.2322   -0.4071   34.8481 N.3     1  UNL1       -0.1566
     10 C           6.4457    0.0164   34.0749 C.3     1  UNL1        0.1128
     11 C           6.7930   -0.6717   32.7881 C.3     1  UNL1        0.0915
     12 N           5.9268   -1.7834   32.2746 N.3     1  UNL1       -0.2711
     13 C           4.7133   -2.2069   33.0478 C.3     1  UNL1        0.0915
     14 C           4.3660   -1.5188   34.3346 C.3     1  UNL1        0.1128
     15 S           4.8849    0.2811   36.1349 S.O2    1  UNL1        0.0439
     16 O           3.8340    1.0809   35.4235 O.2     1  UNL1       -0.1573
     17 O           5.9357   -0.5186   36.8462 O.2     1  UNL1       -0.1573
     18 C           4.5376    0.9693   37.4216 C.3     1  UNL1        0.1691
     19 C           2.3150    0.8255   38.7594 C.3     1  UNL1        0.0019
     20 C           3.1348    1.4416   37.6647 C.3     1  UNL1        0.0270
     21 C           5.9652   -1.0971   30.4729 C.3     1  UNL1        0.1042
     22 N           4.6302   -0.8116   29.8512 N.am    1  UNL1       -0.2994
     23 C           3.9945    0.5358   30.0254 C.2     1  UNL1        0.2503
     24 O           4.6936    1.5977   30.8213 O.2     1  UNL1       -0.2700
     25 H           4.1713   -1.5086   29.3289 H       1  UNL1        0.1498
     26 C           2.6595    0.8212   29.4037 C.ar    1  UNL1        0.1081
     27 C           2.5046    0.7895   27.9121 C.ar    1  UNL1        0.1466
     28 F           3.6848    0.4722   27.0421 F       1  UNL1       -0.2039
     29 C           1.1698    1.0749   27.2904 C.ar    1  UNL1        0.0299
     30 C          -0.0103    1.3921   28.1604 C.ar    1  UNL1        0.0046
     31 C           0.1445    1.4239   29.6520 C.ar    1  UNL1        0.0299
     32 C           1.4795    1.1384   30.2737 C.ar    1  UNL1        0.1466
     33 F           1.6344    1.1702   31.7653 F       1  UNL1       -0.2039
@<TRIPOS>BOND
     1    19    20    1
     2    20    18    1
     3    18    15    1
     4    15    16    2
     5    15    17    2
     6    15     9    1
     7     9    10    1
     8    10    11    1
     9    11    12    1
    10    12     1    1
    11     1    21    1
    12    21    22    1
    13    22    23   am
    14    23    24    2
    15    23    26    1
    16    26    27   ar
    17    27    28    1
    18    27    29   ar
    19    29    30   ar
    20    30    31   ar
    21    31    32   ar
    22    32    33    1
    23     1     2    1
    24     2     3    1
    25     3     4    1
    26     4     5    1
    27     4     6    1
    28     4     7    1
    29     7     8    1
    30    12    13    1
    31    13    14    1
    32    14     9    1
    33     8     1    1
    34    32    26   ar
    35    22    25    1
