@<TRIPOS>MOLECULE
*****
 26 28 0 0 0
SMALL
GASTEIGER

@<TRIPOS>ATOM
      1 C         -11.2029  -19.3912   21.1645 C.3     1  UNL1        0.0817
      2 N         -10.6459  -18.4677   22.2071 N.3     1  UNL1       -0.2722
      3 C         -10.3518  -17.0378   21.8624 C.3     1  UNL1        0.0721
      4 C          -9.7949  -16.1143   22.9050 C.3     1  UNL1        0.0178
      5 C          -9.5321  -16.6207   24.2922 C.3     1  UNL1        0.0087
      6 C          -9.8262  -18.0506   24.6369 C.3     1  UNL1        0.0178
      7 C         -10.3831  -18.9741   23.5943 C.3     1  UNL1        0.0721
      8 C          -8.9752  -15.6971   25.3348 C.3     1  UNL1        0.0453
      9 C          -7.5020  -15.4185   25.3801 C.ar    1  UNL1        0.0541
     10 C          -6.5831  -15.3386   24.1973 C.ar    1  UNL1        0.1131
     11 N          -5.2022  -15.0416   24.7024 N.ar    1  UNL1       -0.2229
     12 C          -5.2678  -14.9379   26.1974 C.ar    1  UNL1        0.1748
     13 N          -6.6891  -15.1709   26.6162 N.ar    1  UNL1       -0.3382
     14 H          -7.0289  -15.1627   27.5402 H       1  UNL1        0.1672
     15 C         -10.4435  -19.6326   19.8936 C.3     1  UNL1        0.1026
     16 O          -8.2133  -19.1728   18.6427 O.2     1  UNL1       -0.2747
     17 C          -8.9449  -19.5673   19.8914 C.2     1  UNL1        0.2275
     18 N          -8.1780  -19.8964   21.1377 N.am    1  UNL1       -0.2839
     19 H          -8.6582  -20.1553   21.9573 H       1  UNL1        0.1549
     20 C          -6.6794  -19.8311   21.1354 C.ar    1  UNL1        0.0504
     21 C          -5.8905  -20.7399   20.2400 C.ar    1  UNL1        0.0155
     22 C          -4.3919  -20.6746   20.2377 C.ar    1  UNL1        0.0127
     23 C          -3.6823  -19.7005   21.1308 C.ar    1  UNL1        0.0578
     24 CL         -2.1837  -19.6352   21.1285 Cl      1  UNL1       -0.0822
     25 C          -4.4712  -18.7918   22.0262 C.ar    1  UNL1        0.0127
     26 C          -5.9698  -18.8570   22.0285 C.ar    1  UNL1        0.0155
@<TRIPOS>BOND
     1    16    17    2
     2    17    15    1
     3    15     1    1
     4     1     2    1
     5     2     3    1
     6     3     4    1
     7     4     5    1
     8     5     8    1
     9     8     9    1
    10     9    10   ar
    11    10    11   ar
    12    11    12   ar
    13    12    13   ar
    14     5     6    1
    15     6     7    1
    16    17    18   am
    17    18    20    1
    18    20    21   ar
    19    21    22   ar
    20    22    23   ar
    21    23    24    1
    22    23    25   ar
    23    25    26   ar
    24     7     2    1
    25    26    20   ar
    26    13     9   ar
    27    13    14    1
    28    18    19    1
@<TRIPOS>MOLECULE
*****
 26 28 0 0 0
SMALL
GASTEIGER

@<TRIPOS>ATOM
      1 C          -6.8035  -15.2567   26.2856 C.3     1  UNL1        0.0817
      2 N          -7.8788  -16.0249   25.5758 N.3     1  UNL1       -0.2722
      3 C          -8.2926  -15.6291   24.1895 C.3     1  UNL1        0.0721
      4 C          -9.3678  -16.3973   23.4797 C.3     1  UNL1        0.0178
      5 C         -10.0291  -17.5613   24.1563 C.3     1  UNL1        0.0087
      6 C          -9.6153  -17.9571   25.5426 C.3     1  UNL1        0.0178
      7 C          -8.5401  -17.1889   26.2524 C.3     1  UNL1        0.0721
      8 C         -11.1044  -18.3295   23.4465 C.3     1  UNL1        0.0453
      9 C         -11.1266  -18.3777   21.9474 C.ar    1  UNL1        0.0541
     10 C         -11.9683  -17.5195   21.0501 C.ar    1  UNL1        0.1131
     11 N         -11.6730  -17.9040   19.6306 N.ar    1  UNL1       -0.2229
     12 C         -10.6488  -18.9998   19.6506 C.ar    1  UNL1        0.1748
     13 N         -10.3112  -19.2926   21.0825 N.ar    1  UNL1       -0.3382
     14 H          -9.6674  -19.9668   21.3990 H       1  UNL1        0.1672
     15 C          -5.3611  -15.5950   26.0517 C.3     1  UNL1        0.1026
     16 O          -5.1148  -14.9769   23.5402 O.2     1  UNL1       -0.2747
     17 C          -4.8851  -15.9358   24.6706 C.2     1  UNL1        0.2275
     18 N          -4.1794  -17.2355   24.4199 N.am    1  UNL1       -0.2839
     19 H          -4.0287  -17.8648   25.1618 H       1  UNL1        0.1549
     20 C          -3.7035  -17.5762   23.0389 C.ar    1  UNL1        0.0504
     21 C          -2.5630  -16.8158   22.4297 C.ar    1  UNL1        0.0155
     22 C          -2.0870  -17.1565   21.0486 C.ar    1  UNL1        0.0127
     23 C          -2.7515  -18.2577   20.2767 C.ar    1  UNL1        0.0578
     24 CL         -2.2755  -18.5985   18.8957 Cl      1  UNL1       -0.0822
     25 C          -3.8919  -19.0182   20.8859 C.ar    1  UNL1        0.0127
     26 C          -4.3679  -18.6774   22.2670 C.ar    1  UNL1        0.0155
@<TRIPOS>BOND
     1    16    17    2
     2    17    15    1
     3    15     1    1
     4     1     2    1
     5     2     3    1
     6     3     4    1
     7     4     5    1
     8     5     8    1
     9     8     9    1
    10     9    10   ar
    11    10    11   ar
    12    11    12   ar
    13    12    13   ar
    14     5     6    1
    15     6     7    1
    16    17    18   am
    17    18    20    1
    18    20    21   ar
    19    21    22   ar
    20    22    23   ar
    21    23    24    1
    22    23    25   ar
    23    25    26   ar
    24     7     2    1
    25    26    20   ar
    26    13     9   ar
    27    13    14    1
    28    18    19    1
@<TRIPOS>MOLECULE
*****
 26 28 0 0 0
SMALL
GASTEIGER

@<TRIPOS>ATOM
      1 C          -6.5880  -15.1360   27.0404 C.3     1  UNL1        0.0817
      2 N          -5.7226  -15.7077   25.9568 N.3     1  UNL1       -0.2722
      3 C          -4.8492  -16.8935   26.2418 C.3     1  UNL1        0.0721
      4 C          -3.9838  -17.4652   25.1582 C.3     1  UNL1        0.0178
      5 C          -3.9918  -16.8512   23.7896 C.3     1  UNL1        0.0087
      6 C          -4.8652  -15.6654   23.5047 C.3     1  UNL1        0.0178
      7 C          -5.7306  -15.0937   24.5883 C.3     1  UNL1        0.0721
      8 C          -3.1264  -17.4229   22.7060 C.3     1  UNL1        0.0453
      9 C          -3.6624  -18.4968   21.8064 C.ar    1  UNL1        0.0541
     10 C          -2.8774  -19.6384   21.2314 C.ar    1  UNL1        0.1131
     11 N          -3.8073  -20.4648   20.3934 N.ar    1  UNL1       -0.2229
     12 C          -5.1671  -19.8340   20.4504 C.ar    1  UNL1        0.1748
     13 N          -5.0775  -18.6177   21.3237 N.ar    1  UNL1       -0.3382
     14 H          -5.8175  -18.0061   21.5418 H       1  UNL1        0.1672
     15 C          -7.9924  -15.6319   27.2187 C.3     1  UNL1        0.1026
     16 O          -9.1019  -17.9137   26.6598 O.2     1  UNL1       -0.2747
     17 C          -8.5872  -16.5763   26.2166 C.2     1  UNL1        0.2275
     18 N          -8.6673  -16.1834   24.7712 N.am    1  UNL1       -0.2839
     19 H          -8.3295  -15.3056   24.4803 H       1  UNL1        0.1549
     20 C          -9.2621  -17.1278   23.7691 C.ar    1  UNL1        0.0504
     21 C         -10.7492  -17.1819   23.5801 C.ar    1  UNL1        0.0155
     22 C         -11.3440  -18.1263   22.5780 C.ar    1  UNL1        0.0127
     23 C         -10.4518  -19.0167   21.7649 C.ar    1  UNL1        0.0578
     24 CL        -11.0466  -19.9611   20.7628 Cl      1  UNL1       -0.0822
     25 C          -8.9648  -18.9626   21.9539 C.ar    1  UNL1        0.0127
     26 C          -8.3699  -18.0182   22.9560 C.ar    1  UNL1        0.0155
@<TRIPOS>BOND
     1    16    17    2
     2    17    15    1
     3    15     1    1
     4     1     2    1
     5     2     3    1
     6     3     4    1
     7     4     5    1
     8     5     8    1
     9     8     9    1
    10     9    10   ar
    11    10    11   ar
    12    11    12   ar
    13    12    13   ar
    14     5     6    1
    15     6     7    1
    16    17    18   am
    17    18    20    1
    18    20    21   ar
    19    21    22   ar
    20    22    23   ar
    21    23    24    1
    22    23    25   ar
    23    25    26   ar
    24     7     2    1
    25    26    20   ar
    26    13     9   ar
    27    13    14    1
    28    18    19    1
@<TRIPOS>MOLECULE
*****
 26 28 0 0 0
SMALL
GASTEIGER

@<TRIPOS>ATOM
      1 C         -11.3878   -7.0289   18.6838 C.3     1  UNL1        0.0817
      2 N         -11.4750   -5.5314   18.6962 N.3     1  UNL1       -0.2722
      3 C         -10.4788   -4.7158   17.9266 C.3     1  UNL1        0.0721
      4 C         -10.5660   -3.2184   17.9389 C.3     1  UNL1        0.0178
      5 C         -11.6494   -2.5366   18.7209 C.3     1  UNL1        0.0087
      6 C         -12.6456   -3.3523   19.4905 C.3     1  UNL1        0.0178
      7 C         -12.5584   -4.8496   19.4781 C.3     1  UNL1        0.0721
      8 C         -11.7366   -1.0392   18.7332 C.3     1  UNL1        0.0453
      9 C         -12.8826   -0.3490   18.0549 C.ar    1  UNL1        0.0541
     10 C         -12.8539    0.2740   16.6907 C.ar    1  UNL1        0.1131
     11 N         -14.2121    0.8474   16.4143 N.ar    1  UNL1       -0.2229
     12 C         -15.0804    0.5787   17.6076 C.ar    1  UNL1        0.1748
     13 N         -14.2587   -0.1607   18.6216 N.ar    1  UNL1       -0.3382
     14 H         -14.5682   -0.4684   19.5041 H       1  UNL1        0.1672
     15 C         -12.1841   -7.8183   17.6875 C.3     1  UNL1        0.1026
     16 O         -14.5997   -7.1092   17.0457 O.2     1  UNL1       -0.2747
     17 C         -13.6678   -7.9601   17.8566 C.2     1  UNL1        0.2275
     18 N         -14.2196   -8.9527   18.8364 N.am    1  UNL1       -0.2839
     19 H         -13.6079   -9.5112   19.3687 H       1  UNL1        0.1549
     20 C         -15.7033   -9.0944   19.0054 C.ar    1  UNL1        0.0504
     21 C         -16.4442  -10.1646   18.2598 C.ar    1  UNL1        0.0155
     22 C         -17.9279  -10.3063   18.4288 C.ar    1  UNL1        0.0127
     23 C         -18.6707   -9.3780   19.3434 C.ar    1  UNL1        0.0578
     24 CL        -20.1543   -9.5197   19.5124 Cl      1  UNL1       -0.0822
     25 C         -17.9298   -8.3079   20.0890 C.ar    1  UNL1        0.0127
     26 C         -16.4460   -8.1661   19.9200 C.ar    1  UNL1        0.0155
@<TRIPOS>BOND
     1    16    17    2
     2    17    15    1
     3    15     1    1
     4     1     2    1
     5     2     3    1
     6     3     4    1
     7     4     5    1
     8     5     8    1
     9     8     9    1
    10     9    10   ar
    11    10    11   ar
    12    11    12   ar
    13    12    13   ar
    14     5     6    1
    15     6     7    1
    16    17    18   am
    17    18    20    1
    18    20    21   ar
    19    21    22   ar
    20    22    23   ar
    21    23    24    1
    22    23    25   ar
    23    25    26   ar
    24     7     2    1
    25    26    20   ar
    26    13     9   ar
    27    13    14    1
    28    18    19    1
@<TRIPOS>MOLECULE
*****
 26 28 0 0 0
SMALL
GASTEIGER

@<TRIPOS>ATOM
      1 C         -11.6580   -6.6681   18.7413 C.3     1  UNL1        0.0817
      2 N         -12.4382   -5.4105   18.9861 N.3     1  UNL1       -0.2722
      3 C         -13.4027   -5.3375   20.1326 C.3     1  UNL1        0.0721
      4 C         -14.1829   -4.0800   20.3774 C.3     1  UNL1        0.0178
      5 C         -13.9986   -2.8955   19.4756 C.3     1  UNL1        0.0087
      6 C         -13.0342   -2.9686   18.3291 C.3     1  UNL1        0.0178
      7 C         -12.2540   -4.2261   18.0844 C.3     1  UNL1        0.0721
      8 C         -14.7789   -1.6380   19.7205 C.3     1  UNL1        0.0453
      9 C         -16.2768   -1.6581   19.6449 C.ar    1  UNL1        0.0541
     10 C         -17.1001   -2.4508   18.6734 C.ar    1  UNL1        0.1131
     11 N         -18.5466   -2.1716   18.9557 N.ar    1  UNL1       -0.2229
     12 C         -18.6173   -1.2064   20.1017 C.ar    1  UNL1        0.1748
     13 N         -17.2146   -0.8890   20.5277 N.ar    1  UNL1       -0.3382
     14 H         -16.9549   -0.2824   21.2584 H       1  UNL1        0.1672
     15 C         -12.2104   -7.7293   17.8366 C.3     1  UNL1        0.1026
     16 O         -14.5258   -7.5677   16.6690 O.2     1  UNL1       -0.2747
     17 C         -13.6831   -8.0145   17.8267 C.2     1  UNL1        0.2275
     18 N         -14.3130   -8.7463   18.9746 N.am    1  UNL1       -0.2839
     19 H         -13.7599   -9.0395   19.7344 H       1  UNL1        0.1549
     20 C         -15.7856   -9.0314   18.9647 C.ar    1  UNL1        0.0504
     21 C         -16.3114  -10.2363   18.2423 C.ar    1  UNL1        0.0155
     22 C         -17.7840  -10.5214   18.2324 C.ar    1  UNL1        0.0127
     23 C         -18.7308   -9.6017   18.9449 C.ar    1  UNL1        0.0578
     24 CL        -20.2034   -9.8868   18.9351 Cl      1  UNL1       -0.0822
     25 C         -18.2050   -8.3969   19.6673 C.ar    1  UNL1        0.0127
     26 C         -16.7324   -8.1117   19.6772 C.ar    1  UNL1        0.0155
@<TRIPOS>BOND
     1    16    17    2
     2    17    15    1
     3    15     1    1
     4     1     2    1
     5     2     3    1
     6     3     4    1
     7     4     5    1
     8     5     8    1
     9     8     9    1
    10     9    10   ar
    11    10    11   ar
    12    11    12   ar
    13    12    13   ar
    14     5     6    1
    15     6     7    1
    16    17    18   am
    17    18    20    1
    18    20    21   ar
    19    21    22   ar
    20    22    23   ar
    21    23    24    1
    22    23    25   ar
    23    25    26   ar
    24     7     2    1
    25    26    20   ar
    26    13     9   ar
    27    13    14    1
    28    18    19    1
@<TRIPOS>MOLECULE
*****
 26 28 0 0 0
SMALL
GASTEIGER

@<TRIPOS>ATOM
      1 C          -5.8959  -14.9547   26.4528 C.3     1  UNL1        0.0817
      2 N          -5.1852  -15.8675   25.4979 N.3     1  UNL1       -0.2722
      3 C          -5.3324  -15.6671   24.0186 C.3     1  UNL1        0.0721
      4 C          -4.6218  -16.5798   23.0638 C.3     1  UNL1        0.0178
      5 C          -3.7639  -17.6930   23.5882 C.3     1  UNL1        0.0087
      6 C          -3.6168  -17.8934   25.0674 C.3     1  UNL1        0.0178
      7 C          -4.3274  -16.9806   26.0222 C.3     1  UNL1        0.0721
      8 C          -3.0533  -18.6058   22.6332 C.3     1  UNL1        0.0453
      9 C          -2.1319  -18.0358   21.5959 C.ar    1  UNL1        0.0541
     10 C          -1.6699  -18.7307   20.3495 C.ar    1  UNL1        0.1131
     11 N          -0.7632  -17.7951   19.6061 N.ar    1  UNL1       -0.2229
     12 C          -0.6648  -16.5219   20.3932 C.ar    1  UNL1        0.1748
     13 N          -1.5107  -16.6707   21.6229 N.ar    1  UNL1       -0.3382
     14 H          -1.6361  -15.9916   22.3246 H       1  UNL1        0.1672
     15 C          -7.3347  -15.2024   26.7969 C.3     1  UNL1        0.1026
     16 O          -8.8275  -17.3256   26.6787 O.2     1  UNL1       -0.2747
     17 C          -8.1400  -16.1812   25.9947 C.2     1  UNL1        0.2275
     18 N          -8.2578  -16.0156   24.5085 N.am    1  UNL1       -0.2839
     19 H          -7.8066  -15.2645   24.0596 H       1  UNL1        0.1549
     20 C          -9.0631  -16.9944   23.7064 C.ar    1  UNL1        0.0504
     21 C         -10.5350  -16.7768   23.5160 C.ar    1  UNL1        0.0155
     22 C         -11.3402  -17.7556   22.7138 C.ar    1  UNL1        0.0127
     23 C         -10.6737  -18.9520   22.1020 C.ar    1  UNL1        0.0578
     24 CL        -11.4789  -19.9308   21.2999 Cl      1  UNL1       -0.0822
     25 C          -9.2018  -19.1696   22.2924 C.ar    1  UNL1        0.0127
     26 C          -8.3965  -18.1908   23.0946 C.ar    1  UNL1        0.0155
@<TRIPOS>BOND
     1    16    17    2
     2    17    15    1
     3    15     1    1
     4     1     2    1
     5     2     3    1
     6     3     4    1
     7     4     5    1
     8     5     8    1
     9     8     9    1
    10     9    10   ar
    11    10    11   ar
    12    11    12   ar
    13    12    13   ar
    14     5     6    1
    15     6     7    1
    16    17    18   am
    17    18    20    1
    18    20    21   ar
    19    21    22   ar
    20    22    23   ar
    21    23    24    1
    22    23    25   ar
    23    25    26   ar
    24     7     2    1
    25    26    20   ar
    26    13     9   ar
    27    13    14    1
    28    18    19    1
@<TRIPOS>MOLECULE
*****
 26 28 0 0 0
SMALL
GASTEIGER

@<TRIPOS>ATOM
      1 C           0.2310    2.7652   20.4394 C.3     1  UNL1        0.0817
      2 N           1.1404    1.6783   19.9475 N.3     1  UNL1       -0.2722
      3 C           2.1389    1.9680   18.8663 C.3     1  UNL1        0.0721
      4 C           3.0482    0.8811   18.3745 C.3     1  UNL1        0.0178
      5 C           2.9589   -0.4953   18.9639 C.3     1  UNL1        0.0087
      6 C           1.9604   -0.7850   20.0450 C.3     1  UNL1        0.0178
      7 C           1.0511    0.3019   20.5369 C.3     1  UNL1        0.0721
      8 C           3.8683   -1.5822   18.4720 C.3     1  UNL1        0.0453
      9 C           3.9023   -2.9069   19.1748 C.ar    1  UNL1        0.0541
     10 C           4.5856   -3.1960   20.4785 C.ar    1  UNL1        0.1131
     11 N           4.3647   -4.6428   20.8068 N.ar    1  UNL1       -0.2229
     12 C           3.5448   -5.2480   19.7060 C.ar    1  UNL1        0.1748
     13 N           3.2591   -4.1751   18.6974 N.ar    1  UNL1       -0.3382
     14 H           2.7404   -4.2842   17.8677 H       1  UNL1        0.1672
     15 C          -1.1163    2.9584   19.8090 C.3     1  UNL1        0.1026
     16 O          -2.0949    4.8511   21.2956 O.2     1  UNL1       -0.2747
     17 C          -2.2479    3.5228   20.6158 C.2     1  UNL1        0.2275
     18 N          -3.5325    2.7588   20.7428 N.am    1  UNL1       -0.2839
     19 H          -3.6329    1.8870   20.2966 H       1  UNL1        0.1549
     20 C          -4.6641    3.3232   21.5496 C.ar    1  UNL1        0.0504
     21 C          -5.7939    4.0322   20.8634 C.ar    1  UNL1        0.0155
     22 C          -6.9255    4.5966   21.6703 C.ar    1  UNL1        0.0127
     23 C          -6.9273    4.4520   23.1633 C.ar    1  UNL1        0.0578
     24 CL         -8.0588    5.0164   23.9701 Cl      1  UNL1       -0.0822
     25 C          -5.7975    3.7430   23.8495 C.ar    1  UNL1        0.0127
     26 C          -4.6659    3.1786   23.0426 C.ar    1  UNL1        0.0155
@<TRIPOS>BOND
     1    16    17    2
     2    17    15    1
     3    15     1    1
     4     1     2    1
     5     2     3    1
     6     3     4    1
     7     4     5    1
     8     5     8    1
     9     8     9    1
    10     9    10   ar
    11    10    11   ar
    12    11    12   ar
    13    12    13   ar
    14     5     6    1
    15     6     7    1
    16    17    18   am
    17    18    20    1
    18    20    21   ar
    19    21    22   ar
    20    22    23   ar
    21    23    24    1
    22    23    25   ar
    23    25    26   ar
    24     7     2    1
    25    26    20   ar
    26    13     9   ar
    27    13    14    1
    28    18    19    1
@<TRIPOS>MOLECULE
*****
 26 28 0 0 0
SMALL
GASTEIGER

@<TRIPOS>ATOM
      1 C         -16.6488   -1.9956   19.1133 C.3     1  UNL1        0.0817
      2 N         -15.2347   -2.4827   18.9981 N.3     1  UNL1       -0.2722
      3 C         -14.6508   -2.7780   17.6483 C.3     1  UNL1        0.0721
      4 C         -13.2368   -3.2651   17.5332 C.3     1  UNL1        0.0178
      5 C         -12.4068   -3.4570   18.7678 C.3     1  UNL1        0.0087
      6 C         -12.9907   -3.1617   20.1175 C.3     1  UNL1        0.0178
      7 C         -14.4047   -2.6746   20.2326 C.3     1  UNL1        0.0721
      8 C         -10.9927   -3.9441   18.6526 C.3     1  UNL1        0.0453
      9 C         -10.7170   -5.4033   18.4414 C.ar    1  UNL1        0.0541
     10 C          -9.6550   -6.2086   19.1298 C.ar    1  UNL1        0.1131
     11 N          -9.7365   -7.6164   18.6186 N.ar    1  UNL1       -0.2229
     12 C         -10.8489   -7.6813   17.6144 C.ar    1  UNL1        0.1748
     13 N         -11.4548   -6.3135   17.5049 N.ar    1  UNL1       -0.3382
     14 H         -12.2051   -6.0581   16.9209 H       1  UNL1        0.1672
     15 C         -17.7132   -2.9037   19.6540 C.3     1  UNL1        0.1026
     16 O         -18.8106   -4.8913   18.3910 O.2     1  UNL1       -0.2747
     17 C         -17.7242   -4.3551   19.2754 C.2     1  UNL1        0.2275
     18 N         -16.6488   -5.2703   19.7812 N.am    1  UNL1       -0.2839
     19 H         -15.9357   -4.9184   20.3617 H       1  UNL1        0.1549
     20 C         -16.6599   -6.7217   19.4026 C.ar    1  UNL1        0.0504
     21 C         -17.6262   -7.6612   20.0611 C.ar    1  UNL1        0.0155
     22 C         -17.6373   -9.1126   19.6825 C.ar    1  UNL1        0.0127
     23 C         -16.6820   -9.6245   18.6454 C.ar    1  UNL1        0.0578
     24 CL        -16.6931  -11.0759   18.2668 Cl      1  UNL1       -0.0822
     25 C         -15.7158   -8.6850   17.9870 C.ar    1  UNL1        0.0127
     26 C         -15.7047   -7.2336   18.3655 C.ar    1  UNL1        0.0155
@<TRIPOS>BOND
     1    16    17    2
     2    17    15    1
     3    15     1    1
     4     1     2    1
     5     2     3    1
     6     3     4    1
     7     4     5    1
     8     5     8    1
     9     8     9    1
    10     9    10   ar
    11    10    11   ar
    12    11    12   ar
    13    12    13   ar
    14     5     6    1
    15     6     7    1
    16    17    18   am
    17    18    20    1
    18    20    21   ar
    19    21    22   ar
    20    22    23   ar
    21    23    24    1
    22    23    25   ar
    23    25    26   ar
    24     7     2    1
    25    26    20   ar
    26    13     9   ar
    27    13    14    1
    28    18    19    1
@<TRIPOS>MOLECULE
*****
 26 28 0 0 0
SMALL
GASTEIGER

@<TRIPOS>ATOM
      1 C           8.0053   -4.6187   23.3125 C.3     1  UNL1        0.0817
      2 N           6.8767   -4.2303   22.4039 N.3     1  UNL1       -0.2722
      3 C           5.5334   -3.8914   22.9790 C.3     1  UNL1        0.0721
      4 C           4.4049   -3.5031   22.0704 C.3     1  UNL1        0.0178
      5 C           4.6197   -3.4536   20.5867 C.3     1  UNL1        0.0087
      6 C           5.9629   -3.7924   20.0115 C.3     1  UNL1        0.0178
      7 C           7.0914   -4.1808   20.9201 C.3     1  UNL1        0.0721
      8 C           3.4911   -3.0652   19.6781 C.3     1  UNL1        0.0453
      9 C           3.6325   -1.8786   18.7715 C.ar    1  UNL1        0.0541
     10 C           3.3138   -0.4561   19.1248 C.ar    1  UNL1        0.1131
     11 N           3.6017    0.3955   17.9240 N.ar    1  UNL1       -0.2229
     12 C           4.0984   -0.5008   16.8285 C.ar    1  UNL1        0.1748
     13 N           4.1174   -1.9062   17.3523 N.ar    1  UNL1       -0.3382
     14 H           4.3988   -2.7063   16.8523 H       1  UNL1        0.1672
     15 C           7.7917   -5.6598   24.3709 C.3     1  UNL1        0.1026
     16 O           9.1473   -5.1373   26.5249 O.2     1  UNL1       -0.2747
     17 C           7.8303   -5.2749   25.8202 C.2     1  UNL1        0.2275
     18 N           6.5518   -5.0276   26.5648 N.am    1  UNL1       -0.2839
     19 H           5.6874   -5.1179   26.1023 H       1  UNL1        0.1549
     20 C           6.5905   -4.6427   28.0140 C.ar    1  UNL1        0.0504
     21 C           6.8486   -5.6859   29.0605 C.ar    1  UNL1        0.0155
     22 C           6.8872   -5.3010   30.5098 C.ar    1  UNL1        0.0127
     23 C           6.6677   -3.8729   30.9126 C.ar    1  UNL1        0.0578
     24 CL          6.7063   -3.4880   32.3618 Cl      1  UNL1       -0.0822
     25 C           6.4096   -2.8297   29.8662 C.ar    1  UNL1        0.0127
     26 C           6.3710   -3.2145   28.4168 C.ar    1  UNL1        0.0155
@<TRIPOS>BOND
     1    16    17    2
     2    17    15    1
     3    15     1    1
     4     1     2    1
     5     2     3    1
     6     3     4    1
     7     4     5    1
     8     5     8    1
     9     8     9    1
    10     9    10   ar
    11    10    11   ar
    12    11    12   ar
    13    12    13   ar
    14     5     6    1
    15     6     7    1
    16    17    18   am
    17    18    20    1
    18    20    21   ar
    19    21    22   ar
    20    22    23   ar
    21    23    24    1
    22    23    25   ar
    23    25    26   ar
    24     7     2    1
    25    26    20   ar
    26    13     9   ar
    27    13    14    1
    28    18    19    1
