@<TRIPOS>MOLECULE
*****
 30 33 0 0 0
SMALL
GASTEIGER

@<TRIPOS>ATOM
      1 C         -12.0496   -6.7575   18.2165 C.3     1  UNL1        0.2129
      2 C         -12.4178   -5.3078   18.3293 C.ar    1  UNL1        0.1110
      3 N         -11.5555   -4.1457   17.9343 N.ar    1  UNL1       -0.2412
      4 C         -12.3178   -2.8853   18.2178 C.ar    1  UNL1        0.0875
      5 C         -11.9700   -1.4383   18.0304 C.ar    1  UNL1        0.0196
      6 C         -12.9555   -0.3744   18.4133 C.ar    1  UNL1        0.0016
      7 C         -14.2889   -0.7575   18.9837 C.ar    1  UNL1        0.0006
      8 C         -14.6367   -2.2045   19.1712 C.ar    1  UNL1        0.0080
      9 C         -13.6511   -3.2684   18.7882 C.ar    1  UNL1        0.0482
     10 S         -13.7129   -4.7656   18.8571 S.2     1  UNL1       -0.0693
     11 C         -15.2745    0.3065   19.3666 C.ar    1  UNL1        0.0000
     12 C         -16.4482   -0.0361   20.2356 C.ar    1  UNL1        0.0000
     13 C         -17.4338    1.0279   20.6186 C.ar    1  UNL1        0.0000
     14 C         -17.2456    2.4345   20.1325 C.ar    1  UNL1        0.0000
     15 C         -16.0719    2.7770   19.2634 C.ar    1  UNL1        0.0000
     16 C         -15.0864    1.7130   18.8805 C.ar    1  UNL1        0.0000
     17 C         -13.0542   -7.7492   17.7094 C.2     1  UNL1        0.2430
     18 O         -13.1980   -7.9840   16.2348 O.2     1  UNL1       -0.2735
     19 N         -13.9150   -8.5062   18.6768 N.am    1  UNL1       -0.2955
     20 H         -13.8207   -8.3521   19.6446 H       1  UNL1        0.1499
     21 C         -14.9197   -9.4980   18.1696 C.3     1  UNL1        0.1757
     22 C         -16.2625   -9.6092   18.8289 C.2     1  UNL1        0.2425
     23 O         -16.7303  -10.9321   19.3592 O.2     1  UNL1       -0.2733
     24 N         -17.1373   -8.3977   18.9579 N.am    1  UNL1       -0.3046
     25 H         -16.8303   -7.5295   18.6098 H       1  UNL1        0.1494
     26 C         -18.4801   -8.5089   19.6172 C.3     1  UNL1        0.0717
     27 C         -19.8212   -9.1714   19.7295 C.3     1  UNL1        0.0213
     28 C         -19.4647   -8.0392   20.6467 C.3     1  UNL1        0.0213
     29 N          -9.3038   -7.6735   19.0050 N.1     1  UNL1       -0.1950
     30 C         -10.6767   -7.2155   18.6107 C.1     1  UNL1        0.0881
@<TRIPOS>BOND
     1    29    30    3
     2    30     1    1
     3     1    17    1
     4    17    18    2
     5    17    19   am
     6    19    21    1
     7    21    22    1
     8    22    23    2
     9    22    24   am
    10    24    26    1
    11    26    27    1
    12    27    28    1
    13     1     2    1
    14     2     3   ar
    15     3     4   ar
    16     4     5   ar
    17     5     6   ar
    18     6     7   ar
    19     7    11    1
    20    11    12   ar
    21    12    13   ar
    22    13    14   ar
    23    14    15   ar
    24    15    16   ar
    25     7     8   ar
    26     8     9   ar
    27     9    10   ar
    28    28    26    1
    29    10     2   ar
    30     9     4   ar
    31    16    11   ar
    32    19    20    1
    33    24    25    1
@<TRIPOS>MOLECULE
*****
 30 33 0 0 0
SMALL
GASTEIGER

@<TRIPOS>ATOM
      1 C           7.8460   -6.7247   27.4831 C.3     1  UNL1        0.2129
      2 C           7.9318   -6.2927   26.0493 C.ar    1  UNL1        0.1110
      3 N           8.8549   -6.8591   25.0115 N.ar    1  UNL1       -0.2412
      4 C           8.6032   -6.1349   23.7222 C.ar    1  UNL1        0.0875
      5 C           9.2168   -6.2678   22.3600 C.ar    1  UNL1        0.0196
      6 C           8.7518   -5.3866   21.2388 C.ar    1  UNL1        0.0016
      7 C           7.6732   -4.3725   21.4798 C.ar    1  UNL1        0.0006
      8 C           7.0596   -4.2395   22.8420 C.ar    1  UNL1        0.0080
      9 C           7.5246   -5.1207   23.9632 C.ar    1  UNL1        0.0482
     10 S           7.1097   -5.2183   25.4014 S.2     1  UNL1       -0.0693
     11 C           7.2082   -3.4912   20.3585 C.ar    1  UNL1        0.0000
     12 C           5.8178   -3.6390   19.8156 C.ar    1  UNL1        0.0000
     13 C           5.3528   -2.7578   18.6942 C.ar    1  UNL1        0.0000
     14 C           6.2783   -1.7288   18.1159 C.ar    1  UNL1        0.0000
     15 C           7.6688   -1.5810   18.6588 C.ar    1  UNL1        0.0000
     16 C           8.1337   -2.4622   19.7801 C.ar    1  UNL1        0.0000
     17 C           8.2269   -8.1232   27.8691 C.2     1  UNL1        0.2430
     18 O           9.4861   -8.3702   28.6461 O.2     1  UNL1       -0.2735
     19 N           7.3488   -9.2747   27.4782 N.am    1  UNL1       -0.2955
     20 H           6.5224   -9.1126   26.9683 H       1  UNL1        0.1499
     21 C           7.7298  -10.6733   27.8643 C.3     1  UNL1        0.1757
     22 C           6.6647  -11.6767   28.1942 C.2     1  UNL1        0.2425
     23 O           7.0352  -12.9784   28.8412 O.2     1  UNL1       -0.2733
     24 N           5.2293  -11.3785   27.8773 N.am    1  UNL1       -0.3046
     25 H           4.9861  -10.5242   27.4527 H       1  UNL1        0.1494
     26 C           4.1643  -12.3820   28.2072 C.3     1  UNL1        0.0717
     27 C           3.4702  -13.6808   27.9223 C.3     1  UNL1        0.0213
     28 C           3.0138  -12.8211   29.0637 C.3     1  UNL1        0.0213
     29 N           6.9126   -4.7917   29.5789 N.1     1  UNL1       -0.1950
     30 C           7.3793   -5.7582   28.5310 C.1     1  UNL1        0.0881
@<TRIPOS>BOND
     1    29    30    3
     2    30     1    1
     3     1    17    1
     4    17    18    2
     5    17    19   am
     6    19    21    1
     7    21    22    1
     8    22    23    2
     9    22    24   am
    10    24    26    1
    11    26    27    1
    12    27    28    1
    13     1     2    1
    14     2     3   ar
    15     3     4   ar
    16     4     5   ar
    17     5     6   ar
    18     6     7   ar
    19     7    11    1
    20    11    12   ar
    21    12    13   ar
    22    13    14   ar
    23    14    15   ar
    24    15    16   ar
    25     7     8   ar
    26     8     9   ar
    27     9    10   ar
    28    28    26    1
    29    10     2   ar
    30     9     4   ar
    31    16    11   ar
    32    19    20    1
    33    24    25    1
@<TRIPOS>MOLECULE
*****
 30 33 0 0 0
SMALL
GASTEIGER

@<TRIPOS>ATOM
      1 C          -2.0003    4.0466   19.3210 C.3     1  UNL1        0.2129
      2 C          -0.9615    2.9738   19.4621 C.ar    1  UNL1        0.1110
      3 N          -0.9068    1.9363   20.5440 N.ar    1  UNL1       -0.2412
      4 C           0.2934    1.0713   20.2966 C.ar    1  UNL1        0.0875
      5 C           0.8495   -0.1093   21.0362 C.ar    1  UNL1        0.0196
      6 C           2.0926   -0.7869   20.5409 C.ar    1  UNL1        0.0016
      7 C           2.7798   -0.2840   19.3061 C.ar    1  UNL1        0.0006
      8 C           2.2237    0.8966   18.5665 C.ar    1  UNL1        0.0080
      9 C           0.9806    1.5742   19.0617 C.ar    1  UNL1        0.0482
     10 S           0.2050    2.7500   18.5460 S.2     1  UNL1       -0.0693
     11 C           4.0230   -0.9617   18.8108 C.ar    1  UNL1        0.0000
     12 C           5.1459   -0.1460   18.2419 C.ar    1  UNL1        0.0000
     13 C           6.3891   -0.8237   17.7467 C.ar    1  UNL1        0.0000
     14 C           6.5093   -2.3171   17.8204 C.ar    1  UNL1        0.0000
     15 C           5.3863   -3.1327   18.3893 C.ar    1  UNL1        0.0000
     16 C           4.1432   -2.4550   18.8845 C.ar    1  UNL1        0.0000
     17 C          -3.1082    4.1547   20.3263 C.2     1  UNL1        0.2430
     18 O          -3.6072    5.5042   20.7504 O.2     1  UNL1       -0.2735
     19 N          -3.7173    2.9132   20.9076 N.am    1  UNL1       -0.2955
     20 H          -3.3898    2.0275   20.6293 H       1  UNL1        0.1499
     21 C          -4.8253    3.0213   21.9130 C.3     1  UNL1        0.1757
     22 C          -4.5288    3.4826   23.3091 C.2     1  UNL1        0.2425
     23 O          -3.1200    3.4579   23.8239 O.2     1  UNL1       -0.2733
     24 N          -5.6409    3.9687   24.1905 N.am    1  UNL1       -0.3046
     25 H          -6.5655    3.9849   23.8527 H       1  UNL1        0.1494
     26 C          -5.3444    4.4300   25.5867 C.3     1  UNL1        0.0717
     27 C          -5.6923    5.2728   26.7777 C.3     1  UNL1        0.0213
     28 C          -4.4829    4.3862   26.8138 C.3     1  UNL1        0.0213
     29 N          -1.8619    5.9763   17.0281 N.1     1  UNL1       -0.1950
     30 C          -1.9311    5.0114   18.1746 C.1     1  UNL1        0.0881
@<TRIPOS>BOND
     1    29    30    3
     2    30     1    1
     3     1    17    1
     4    17    18    2
     5    17    19   am
     6    19    21    1
     7    21    22    1
     8    22    23    2
     9    22    24   am
    10    24    26    1
    11    26    27    1
    12    27    28    1
    13     1     2    1
    14     2     3   ar
    15     3     4   ar
    16     4     5   ar
    17     5     6   ar
    18     6     7   ar
    19     7    11    1
    20    11    12   ar
    21    12    13   ar
    22    13    14   ar
    23    14    15   ar
    24    15    16   ar
    25     7     8   ar
    26     8     9   ar
    27     9    10   ar
    28    28    26    1
    29    10     2   ar
    30     9     4   ar
    31    16    11   ar
    32    19    20    1
    33    24    25    1
@<TRIPOS>MOLECULE
*****
 30 33 0 0 0
SMALL
GASTEIGER

@<TRIPOS>ATOM
      1 C           7.4562   -5.2067   24.7948 C.3     1  UNL1        0.2129
      2 C           6.4838   -4.1857   24.2829 C.ar    1  UNL1        0.1110
      3 N           5.7761   -3.1512   25.1069 N.ar    1  UNL1       -0.2412
      4 C           4.9034   -2.3460   24.1904 C.ar    1  UNL1        0.0875
      5 C           3.9772   -1.1934   24.4424 C.ar    1  UNL1        0.0196
      6 C           3.2193   -0.5776   23.3038 C.ar    1  UNL1        0.0016
      7 C           3.3876   -1.1144   21.9134 C.ar    1  UNL1        0.0006
      8 C           4.3138   -2.2671   21.6614 C.ar    1  UNL1        0.0080
      9 C           5.0717   -2.8829   22.7999 C.ar    1  UNL1        0.0482
     10 S           6.0484   -4.0198   22.8571 S.2     1  UNL1       -0.0693
     11 C           2.6296   -0.4986   20.7748 C.ar    1  UNL1        0.0000
     12 C           3.2755   -0.3680   19.4273 C.ar    1  UNL1        0.0000
     13 C           2.5175    0.2479   18.2887 C.ar    1  UNL1        0.0000
     14 C           1.1137    0.7331   18.4977 C.ar    1  UNL1        0.0000
     15 C           0.4677    0.6025   19.8453 C.ar    1  UNL1        0.0000
     16 C           1.2257   -0.0133   20.9838 C.ar    1  UNL1        0.0000
     17 C           7.7979   -5.2512   26.2546 C.2     1  UNL1        0.2430
     18 O           9.2327   -5.2118   26.6906 O.2     1  UNL1       -0.2735
     19 N           6.7050   -5.3351   27.2786 N.am    1  UNL1       -0.2955
     20 H           5.7634   -5.3610   26.9925 H       1  UNL1        0.1499
     21 C           7.0469   -5.3796   28.7385 C.3     1  UNL1        0.1757
     22 C           6.6625   -4.2391   29.6338 C.2     1  UNL1        0.2425
     23 O           6.3647   -2.8916   29.0460 O.2     1  UNL1       -0.2733
     24 N           6.5760   -4.4462   31.1169 N.am    1  UNL1       -0.3046
     25 H           6.7714   -5.3306   31.5027 H       1  UNL1        0.1494
     26 C           6.1916   -3.3057   32.0123 C.3     1  UNL1        0.0717
     27 C           6.5279   -2.0003   32.6701 C.3     1  UNL1        0.0213
     28 C           5.1897   -2.6359   32.9052 C.3     1  UNL1        0.0213
     29 N           8.7174   -7.1599   22.8989 N.1     1  UNL1       -0.1950
     30 C           8.0867   -6.1833   23.8469 C.1     1  UNL1        0.0881
@<TRIPOS>BOND
     1    29    30    3
     2    30     1    1
     3     1    17    1
     4    17    18    2
     5    17    19   am
     6    19    21    1
     7    21    22    1
     8    22    23    2
     9    22    24   am
    10    24    26    1
    11    26    27    1
    12    27    28    1
    13     1     2    1
    14     2     3   ar
    15     3     4   ar
    16     4     5   ar
    17     5     6   ar
    18     6     7   ar
    19     7    11    1
    20    11    12   ar
    21    12    13   ar
    22    13    14   ar
    23    14    15   ar
    24    15    16   ar
    25     7     8   ar
    26     8     9   ar
    27     9    10   ar
    28    28    26    1
    29    10     2   ar
    30     9     4   ar
    31    16    11   ar
    32    19    20    1
    33    24    25    1
@<TRIPOS>MOLECULE
*****
 30 33 0 0 0
SMALL
GASTEIGER

@<TRIPOS>ATOM
      1 C           7.1657   -4.7635   25.3480 C.3     1  UNL1        0.2129
      2 C           7.0304   -4.5420   26.8254 C.ar    1  UNL1        0.1110
      3 N           7.2265   -5.5766   27.8936 N.ar    1  UNL1       -0.2412
      4 C           6.9925   -4.9211   29.2224 C.ar    1  UNL1        0.0875
      5 C           7.0457   -5.4492   30.6253 C.ar    1  UNL1        0.0196
      6 C           6.7582   -4.5376   31.7812 C.ar    1  UNL1        0.0016
      7 C           6.4175   -3.0978   31.5342 C.ar    1  UNL1        0.0006
      8 C           6.3643   -2.5697   30.1313 C.ar    1  UNL1        0.0080
      9 C           6.6518   -3.4814   28.9753 C.ar    1  UNL1        0.0482
     10 S           6.6752   -3.2471   27.4939 S.2     1  UNL1       -0.0693
     11 C           6.1299   -2.1861   32.6902 C.ar    1  UNL1        0.0000
     12 C           7.1954   -1.2610   33.1988 C.ar    1  UNL1        0.0000
     13 C           6.9079   -0.3493   34.3548 C.ar    1  UNL1        0.0000
     14 C           5.5548   -0.3629   35.0021 C.ar    1  UNL1        0.0000
     15 C           4.4893   -1.2881   34.4934 C.ar    1  UNL1        0.0000
     16 C           4.7769   -2.1997   33.3375 C.ar    1  UNL1        0.0000
     17 C           6.7409   -3.6929   24.3871 C.2     1  UNL1        0.2430
     18 O           7.7544   -3.0429   23.4924 O.2     1  UNL1       -0.2735
     19 N           5.3027   -3.2721   24.3209 N.am    1  UNL1       -0.2955
     20 H           4.6375   -3.6986   24.9082 H       1  UNL1        0.1499
     21 C           4.8779   -2.2014   23.3600 C.3     1  UNL1        0.1757
     22 C           4.4694   -2.5660   21.9635 C.2     1  UNL1        0.2425
     23 O           3.9097   -1.5179   21.0480 O.2     1  UNL1       -0.2733
     24 N           4.6206   -3.9787   21.4826 N.am    1  UNL1       -0.3046
     25 H           4.9880   -4.6666   22.0835 H       1  UNL1        0.1494
     26 C           4.2121   -4.3434   20.0861 C.3     1  UNL1        0.0717
     27 C           3.1555   -4.4442   19.0262 C.3     1  UNL1        0.0213
     28 C           4.5611   -4.8742   18.7273 C.3     1  UNL1        0.0213
     29 N           8.2858   -7.3477   24.3149 N.1     1  UNL1       -0.1950
     30 C           7.7257   -6.0555   24.8315 C.1     1  UNL1        0.0881
@<TRIPOS>BOND
     1    29    30    3
     2    30     1    1
     3     1    17    1
     4    17    18    2
     5    17    19   am
     6    19    21    1
     7    21    22    1
     8    22    23    2
     9    22    24   am
    10    24    26    1
    11    26    27    1
    12    27    28    1
    13     1     2    1
    14     2     3   ar
    15     3     4   ar
    16     4     5   ar
    17     5     6   ar
    18     6     7   ar
    19     7    11    1
    20    11    12   ar
    21    12    13   ar
    22    13    14   ar
    23    14    15   ar
    24    15    16   ar
    25     7     8   ar
    26     8     9   ar
    27     9    10   ar
    28    28    26    1
    29    10     2   ar
    30     9     4   ar
    31    16    11   ar
    32    19    20    1
    33    24    25    1
@<TRIPOS>MOLECULE
*****
 30 33 0 0 0
SMALL
GASTEIGER

@<TRIPOS>ATOM
      1 C           6.4910   -2.7674   26.9924 C.3     1  UNL1        0.2129
      2 C           5.8870   -2.6576   25.6237 C.ar    1  UNL1        0.1110
      3 N           5.9749   -3.6868   24.5361 N.ar    1  UNL1       -0.2412
      4 C           5.2313   -3.1647   23.3425 C.ar    1  UNL1        0.0875
      5 C           4.9820   -3.7456   21.9823 C.ar    1  UNL1        0.0196
      6 C           4.1853   -2.9745   20.9720 C.ar    1  UNL1        0.0016
      7 C           3.6379   -1.6225   21.3221 C.ar    1  UNL1        0.0006
      8 C           3.8872   -1.0416   22.6823 C.ar    1  UNL1        0.0080
      9 C           4.6839   -1.8127   23.6925 C.ar    1  UNL1        0.0482
     10 S           5.0892   -1.4994   25.1024 S.2     1  UNL1       -0.0693
     11 C           2.8411   -0.8515   20.3117 C.ar    1  UNL1        0.0000
     12 C           1.4471   -0.4046   20.6386 C.ar    1  UNL1        0.0000
     13 C           0.6503    0.3664   19.6283 C.ar    1  UNL1        0.0000
     14 C           1.2477    0.6906   18.2911 C.ar    1  UNL1        0.0000
     15 C           2.6418    0.2437   17.9642 C.ar    1  UNL1        0.0000
     16 C           3.4385   -0.5273   18.9745 C.ar    1  UNL1        0.0000
     17 C           5.9932   -1.8923   28.1042 C.2     1  UNL1        0.2430
     18 O           6.9683   -1.2369   29.0368 O.2     1  UNL1       -0.2735
     19 N           4.5202   -1.6725   28.2836 N.am    1  UNL1       -0.2955
     20 H           3.8802   -2.1026   27.6715 H       1  UNL1        0.1499
     21 C           4.0225   -0.7973   29.3955 C.3     1  UNL1        0.1757
     22 C           2.5505   -0.5633   29.5641 C.2     1  UNL1        0.2425
     23 O           1.9482   -0.5339   30.9376 O.2     1  UNL1       -0.2733
     24 N           1.6807   -0.3588   28.3593 N.am    1  UNL1       -0.3046
     25 H           2.0760   -0.3781   27.4578 H       1  UNL1        0.1494
     26 C           0.2087   -0.1248   28.5279 C.3     1  UNL1        0.0717
     27 C          -0.9711    0.8010   28.4994 C.3     1  UNL1        0.0213
     28 C          -1.1610   -0.6454   28.8485 C.3     1  UNL1        0.0213
     29 N           8.6946   -4.7374   27.5059 N.1     1  UNL1       -0.1950
     30 C           7.5927   -3.7524   27.2492 C.1     1  UNL1        0.0881
@<TRIPOS>BOND
     1    29    30    3
     2    30     1    1
     3     1    17    1
     4    17    18    2
     5    17    19   am
     6    19    21    1
     7    21    22    1
     8    22    23    2
     9    22    24   am
    10    24    26    1
    11    26    27    1
    12    27    28    1
    13     1     2    1
    14     2     3   ar
    15     3     4   ar
    16     4     5   ar
    17     5     6   ar
    18     6     7   ar
    19     7    11    1
    20    11    12   ar
    21    12    13   ar
    22    13    14   ar
    23    14    15   ar
    24    15    16   ar
    25     7     8   ar
    26     8     9   ar
    27     9    10   ar
    28    28    26    1
    29    10     2   ar
    30     9     4   ar
    31    16    11   ar
    32    19    20    1
    33    24    25    1
@<TRIPOS>MOLECULE
*****
 30 33 0 0 0
SMALL
GASTEIGER

@<TRIPOS>ATOM
      1 C           2.5001   -0.3694   28.1418 C.3     1  UNL1        0.2129
      2 C           1.4767    0.5034   27.4778 C.ar    1  UNL1        0.1110
      3 N           1.5666    1.0697   26.0917 N.ar    1  UNL1       -0.2412
      4 C           0.3292    1.8794   25.8406 C.ar    1  UNL1        0.0875
      5 C          -0.1297    2.6682   24.6501 C.ar    1  UNL1        0.0196
      6 C          -1.4434    3.3911   24.6906 C.ar    1  UNL1        0.0016
      7 C          -2.2982    3.3252   25.9214 C.ar    1  UNL1        0.0006
      8 C          -1.8393    2.5364   27.1119 C.ar    1  UNL1        0.0080
      9 C          -0.5256    1.8135   27.0714 C.ar    1  UNL1        0.0482
     10 S           0.1836    0.9631   28.0833 S.2     1  UNL1       -0.0693
     11 C          -3.6119    4.0481   25.9618 C.ar    1  UNL1        0.0000
     12 C          -4.6658    3.7463   24.9381 C.ar    1  UNL1        0.0000
     13 C          -5.9796    4.4692   24.9784 C.ar    1  UNL1        0.0000
     14 C          -6.2393    5.4939   26.0426 C.ar    1  UNL1        0.0000
     15 C          -5.1853    5.7958   27.0664 C.ar    1  UNL1        0.0000
     16 C          -3.8716    5.0729   27.0259 C.ar    1  UNL1        0.0000
     17 C           3.5342   -1.0746   27.3152 C.2     1  UNL1        0.2430
     18 O           4.6773   -1.7784   27.9847 O.2     1  UNL1       -0.2735
     19 N           3.4253   -1.0761   25.8192 N.am    1  UNL1       -0.2955
     20 H           2.6751   -0.6143   25.3798 H       1  UNL1        0.1499
     21 C           4.4595   -1.7814   24.9926 C.3     1  UNL1        0.1757
     22 C           4.1817   -2.0961   23.5526 C.2     1  UNL1        0.2425
     23 O           4.6095   -3.4135   22.9767 O.2     1  UNL1       -0.2733
     24 N           3.4763   -1.0934   22.6883 N.am    1  UNL1       -0.3046
     25 H           3.1955   -0.2288   23.0663 H       1  UNL1        0.1494
     26 C           3.1985   -1.4081   21.2482 C.3     1  UNL1        0.0717
     27 C           3.5758   -2.1050   19.9747 C.3     1  UNL1        0.0213
     28 C           2.3402   -1.2561   20.0275 C.3     1  UNL1        0.0213
     29 N           2.4787   -0.7045   31.1230 N.1     1  UNL1       -0.1950
     30 C           2.4894   -0.5369   29.6323 C.1     1  UNL1        0.0881
@<TRIPOS>BOND
     1    29    30    3
     2    30     1    1
     3     1    17    1
     4    17    18    2
     5    17    19   am
     6    19    21    1
     7    21    22    1
     8    22    23    2
     9    22    24   am
    10    24    26    1
    11    26    27    1
    12    27    28    1
    13     1     2    1
    14     2     3   ar
    15     3     4   ar
    16     4     5   ar
    17     5     6   ar
    18     6     7   ar
    19     7    11    1
    20    11    12   ar
    21    12    13   ar
    22    13    14   ar
    23    14    15   ar
    24    15    16   ar
    25     7     8   ar
    26     8     9   ar
    27     9    10   ar
    28    28    26    1
    29    10     2   ar
    30     9     4   ar
    31    16    11   ar
    32    19    20    1
    33    24    25    1
@<TRIPOS>MOLECULE
*****
 30 33 0 0 0
SMALL
GASTEIGER

@<TRIPOS>ATOM
      1 C         -12.2952   -4.7685   18.6122 C.3     1  UNL1        0.2129
      2 C         -13.0117   -3.4594   18.7633 C.ar    1  UNL1        0.1110
      3 N         -12.5431   -2.1327   18.2434 N.ar    1  UNL1       -0.2412
      4 C         -13.5644   -1.1004   18.6195 C.ar    1  UNL1        0.0875
      5 C         -13.6350    0.3776   18.3742 C.ar    1  UNL1        0.0196
      6 C         -14.8054    1.1670   18.8812 C.ar    1  UNL1        0.0016
      7 C         -15.9052    0.4782   19.6335 C.ar    1  UNL1        0.0006
      8 C         -15.8346   -0.9998   19.8788 C.ar    1  UNL1        0.0080
      9 C         -14.6642   -1.7892   19.3719 C.ar    1  UNL1        0.0482
     10 S         -14.3227   -3.2471   19.4607 S.2     1  UNL1       -0.0693
     11 C         -17.0756    1.2677   20.1405 C.ar    1  UNL1        0.0000
     12 C         -17.2554    1.4796   21.6144 C.ar    1  UNL1        0.0000
     13 C         -18.4259    2.2690   22.1214 C.ar    1  UNL1        0.0000
     14 C         -19.4165    2.8465   21.1543 C.ar    1  UNL1        0.0000
     15 C         -19.2366    2.6345   19.6803 C.ar    1  UNL1        0.0000
     16 C         -18.0662    1.8451   19.1734 C.ar    1  UNL1        0.0000
     17 C         -13.0150   -5.9565   18.0459 C.2     1  UNL1        0.2430
     18 O         -13.6310   -5.8793   16.6804 O.2     1  UNL1       -0.2735
     19 N         -13.1188   -7.2216   18.8451 N.am    1  UNL1       -0.2955
     20 H         -12.7145   -7.2722   19.7414 H       1  UNL1        0.1499
     21 C         -13.8386   -8.4096   18.2788 C.3     1  UNL1        0.1757
     22 C         -15.2536   -8.6939   18.6872 C.2     1  UNL1        0.2425
     23 O         -15.7540  -10.1076   18.7240 O.2     1  UNL1       -0.2733
     24 N         -16.1683   -7.5647   19.0588 N.am    1  UNL1       -0.3046
     25 H         -15.8399   -6.6368   19.0346 H       1  UNL1        0.1494
     26 C         -17.5833   -7.8490   19.4673 C.3     1  UNL1        0.0717
     27 C         -18.6482   -7.8857   20.5230 C.3     1  UNL1        0.0213
     28 C         -18.9693   -8.3048   19.1189 C.3     1  UNL1        0.0213
     29 N          -9.4227   -5.0109   19.4427 N.1     1  UNL1       -0.1950
     30 C         -10.8590   -4.8897   19.0275 C.1     1  UNL1        0.0881
@<TRIPOS>BOND
     1    29    30    3
     2    30     1    1
     3     1    17    1
     4    17    18    2
     5    17    19   am
     6    19    21    1
     7    21    22    1
     8    22    23    2
     9    22    24   am
    10    24    26    1
    11    26    27    1
    12    27    28    1
    13     1     2    1
    14     2     3   ar
    15     3     4   ar
    16     4     5   ar
    17     5     6   ar
    18     6     7   ar
    19     7    11    1
    20    11    12   ar
    21    12    13   ar
    22    13    14   ar
    23    14    15   ar
    24    15    16   ar
    25     7     8   ar
    26     8     9   ar
    27     9    10   ar
    28    28    26    1
    29    10     2   ar
    30     9     4   ar
    31    16    11   ar
    32    19    20    1
    33    24    25    1
@<TRIPOS>MOLECULE
*****
 30 33 0 0 0
SMALL
GASTEIGER

@<TRIPOS>ATOM
      1 C           7.0411   -3.8406   21.3106 C.3     1  UNL1        0.2129
      2 C           7.1341   -4.2743   22.7435 C.ar    1  UNL1        0.1110
      3 N           7.6233   -5.6055   23.2318 N.ar    1  UNL1       -0.2412
      4 C           7.5458   -5.6069   24.7298 C.ar    1  UNL1        0.0875
      5 C           7.8948   -6.6477   25.7519 C.ar    1  UNL1        0.0196
      6 C           7.7068   -6.3580   27.2116 C.ar    1  UNL1        0.0016
      7 C           7.1696   -5.0276   27.6491 C.ar    1  UNL1        0.0006
      8 C           6.8205   -3.9868   26.6270 C.ar    1  UNL1        0.0080
      9 C           7.0086   -4.2765   25.1673 C.ar    1  UNL1        0.0482
     10 S           6.7542   -3.4529   23.9397 S.2     1  UNL1       -0.0693
     11 C           6.9816   -4.7380   29.1089 C.ar    1  UNL1        0.0000
     12 C           7.1299   -5.8387   30.1171 C.ar    1  UNL1        0.0000
     13 C           6.9419   -5.5491   31.5768 C.ar    1  UNL1        0.0000
     14 C           6.6055   -4.1588   32.0284 C.ar    1  UNL1        0.0000
     15 C           6.4572   -3.0581   31.0201 C.ar    1  UNL1        0.0000
     16 C           6.6452   -3.3477   29.5604 C.ar    1  UNL1        0.0000
     17 C           5.7009   -3.7286   20.6463 C.2     1  UNL1        0.2430
     18 O           4.5681   -4.6059   21.0903 O.2     1  UNL1       -0.2735
     19 N           5.4935   -2.7393   19.5380 N.am    1  UNL1       -0.2955
     20 H           6.2369   -2.1635   19.2466 H       1  UNL1        0.1499
     21 C           4.1532   -2.6273   18.8738 C.3     1  UNL1        0.1757
     22 C           3.2378   -1.4902   19.2187 C.2     1  UNL1        0.2425
     23 O           2.9445   -0.4282   18.2007 O.2     1  UNL1       -0.2733
     24 N           2.6158   -1.4149   20.5816 N.am    1  UNL1       -0.3046
     25 H           2.8083   -2.1119   21.2497 H       1  UNL1        0.1494
     26 C           1.7005   -0.2778   20.9265 C.3     1  UNL1        0.0717
     27 C           0.5225    0.5887   20.5927 C.3     1  UNL1        0.0213
     28 C           1.2931    0.8253   21.8577 C.3     1  UNL1        0.0213
     29 N           9.5356   -3.1971   19.7732 N.1     1  UNL1       -0.1950
     30 C           8.2883   -3.5188   20.5419 C.1     1  UNL1        0.0881
@<TRIPOS>BOND
     1    29    30    3
     2    30     1    1
     3     1    17    1
     4    17    18    2
     5    17    19   am
     6    19    21    1
     7    21    22    1
     8    22    23    2
     9    22    24   am
    10    24    26    1
    11    26    27    1
    12    27    28    1
    13     1     2    1
    14     2     3   ar
    15     3     4   ar
    16     4     5   ar
    17     5     6   ar
    18     6     7   ar
    19     7    11    1
    20    11    12   ar
    21    12    13   ar
    22    13    14   ar
    23    14    15   ar
    24    15    16   ar
    25     7     8   ar
    26     8     9   ar
    27     9    10   ar
    28    28    26    1
    29    10     2   ar
    30     9     4   ar
    31    16    11   ar
    32    19    20    1
    33    24    25    1
