@<TRIPOS>MOLECULE
*****
 35 38 0 0 0
SMALL
GASTEIGER

@<TRIPOS>ATOM
      1 C         -10.5383  -18.3237   24.4865 C.3     1  UNL1        0.1153
      2 N          -9.2674  -18.2005   23.6992 N.am    1  UNL1       -0.2714
      3 C          -8.6579  -19.4150   23.0640 C.2     1  UNL1        0.2661
      4 O          -9.3191  -20.7527   23.2163 O.2     1  UNL1       -0.2710
      5 C          -7.3871  -19.2918   22.2767 C.3     1  UNL1        0.2415
      6 C          -7.3403  -19.7553   20.8509 C.3     1  UNL1        0.0579
      7 C          -6.0695  -19.6321   20.0636 C.3     1  UNL1        0.0337
      8 C          -4.8455  -19.0453   20.7020 C.ar    1  UNL1        0.0133
      9 C          -3.5747  -18.9221   19.9146 C.ar    1  UNL1        0.0186
     10 C          -2.3508  -18.3353   20.5531 C.ar    1  UNL1        0.1216
     11 C          -2.3976  -17.8717   21.9790 C.ar    1  UNL1        0.0230
     12 C          -3.6684  -17.9950   22.7663 C.ar    1  UNL1        0.0380
     13 C          -4.8924  -18.5817   22.1278 C.ar    1  UNL1        0.1351
     14 O          -6.1631  -18.7050   22.9151 O.3     1  UNL1       -0.4703
     15 S          -1.0800  -18.2121   19.7658 S.O2    1  UNL1        0.0571
     16 N           0.1908  -18.0888   18.9784 N.3     1  UNL1       -0.2035
     17 O          -1.8707  -18.2020   18.4912 O.2     1  UNL1       -0.1532
     18 O          -0.2893  -18.2221   21.0404 O.2     1  UNL1       -0.1532
     19 H          -0.0281  -18.0544   17.9828 H       1  UNL1        0.1442
     20 H           0.7875  -18.8941   19.1677 H       1  UNL1        0.1442
     21 C          -8.6062  -16.8627   23.5469 C.3     1  UNL1        0.1139
     22 C          -7.8957  -16.2403   24.7122 C.ar    1  UNL1       -0.0029
     23 C          -8.5938  -16.1097   26.0335 C.ar    1  UNL1       -0.0026
     24 C          -7.8834  -15.4874   27.1988 C.ar    1  UNL1       -0.0003
     25 C          -6.4750  -14.9956   27.0428 C.ar    1  UNL1       -0.0000
     26 C          -5.7769  -15.1262   25.7216 C.ar    1  UNL1       -0.0003
     27 C          -6.4873  -15.7485   24.5563 C.ar    1  UNL1       -0.0026
     28 C          -8.6555  -16.1473   22.2294 C.3     1  UNL1        0.0968
     29 N          -9.7981  -16.3875   21.2878 N.3     1  UNL1       -0.2689
     30 C         -10.3235  -17.7265   20.8624 C.3     1  UNL1        0.0748
     31 C         -11.4661  -17.4975   19.9179 C.3     1  UNL1        0.0480
     32 C         -11.6469  -16.0168   19.7596 C.3     1  UNL1        0.1278
     33 O         -12.6776  -15.3408   18.9048 O.3     1  UNL1       -0.3830
     34 C         -10.6160  -15.3309   20.6063 C.3     1  UNL1        0.1017
     35 H         -12.5794  -14.3787   18.9799 H       1  UNL1        0.2104
@<TRIPOS>BOND
     1     1     2    1
     2     2     3   am
     3     3     4    2
     4     3     5    1
     5     5     6    1
     6     6     7    1
     7     7     8    1
     8     8     9   ar
     9     9    10   ar
    10    10    15    1
    11    15    16    1
    12    15    17    2
    13    15    18    2
    14    10    11   ar
    15    11    12   ar
    16    12    13   ar
    17    13    14    1
    18     2    21    1
    19    21    28    1
    20    28    29    1
    21    29    30    1
    22    30    31    1
    23    31    32    1
    24    32    33    1
    25    32    34    1
    26    21    22    1
    27    22    23   ar
    28    23    24   ar
    29    24    25   ar
    30    25    26   ar
    31    26    27   ar
    32    14     5    1
    33    34    29    1
    34    27    22   ar
    35    13     8   ar
    36    16    19    1
    37    16    20    1
    38    33    35    1
@<TRIPOS>MOLECULE
*****
 35 38 0 0 0
SMALL
GASTEIGER

@<TRIPOS>ATOM
      1 C         -12.1689  -18.6412   24.5116 C.3     1  UNL1        0.1153
      2 N         -10.9554  -18.4244   23.6568 N.am    1  UNL1       -0.2714
      3 C         -10.1511  -19.5991   23.1846 C.2     1  UNL1        0.2661
      4 O         -10.5601  -20.9907   23.5671 O.2     1  UNL1       -0.2710
      5 C          -8.9376  -19.3823   22.3298 C.3     1  UNL1        0.2415
      6 C          -9.0861  -19.2061   20.8476 C.3     1  UNL1        0.0579
      7 C          -7.8727  -18.9894   19.9929 C.3     1  UNL1        0.0337
      8 C          -6.5108  -18.9488   20.6203 C.ar    1  UNL1        0.0133
      9 C          -5.2974  -18.7320   19.7655 C.ar    1  UNL1        0.0186
     10 C          -3.9355  -18.6914   20.3930 C.ar    1  UNL1        0.1216
     11 C          -3.7871  -18.8676   21.8752 C.ar    1  UNL1        0.0230
     12 C          -5.0005  -19.0844   22.7299 C.ar    1  UNL1        0.0380
     13 C          -6.3624  -19.1250   22.1025 C.ar    1  UNL1        0.1351
     14 O          -7.5758  -19.3418   22.9572 O.3     1  UNL1       -0.4703
     15 S          -2.7221  -18.4746   19.5382 S.O2    1  UNL1        0.0571
     16 N          -1.5086  -18.2578   18.6834 N.3     1  UNL1       -0.2035
     17 O          -3.4544  -17.4170   18.7669 O.2     1  UNL1       -0.1532
     18 O          -1.9898  -19.5323   20.3096 O.2     1  UNL1       -0.1532
     19 H          -1.7031  -17.5306   17.9952 H       1  UNL1        0.1442
     20 H          -1.2716  -19.1259   18.2031 H       1  UNL1        0.1442
     21 C         -10.5464  -17.0329   23.2743 C.3     1  UNL1        0.1139
     22 C         -10.7924  -16.5352   21.8807 C.ar    1  UNL1       -0.0029
     23 C          -9.8821  -15.5051   21.2806 C.ar    1  UNL1       -0.0026
     24 C         -10.1281  -15.0074   19.8872 C.ar    1  UNL1       -0.0003
     25 C         -11.2844  -15.5398   19.0938 C.ar    1  UNL1       -0.0000
     26 C         -12.1947  -16.5699   19.6940 C.ar    1  UNL1       -0.0003
     27 C         -11.9487  -17.0676   21.0874 C.ar    1  UNL1       -0.0026
     28 C          -9.8914  -16.1391   24.2852 C.3     1  UNL1        0.0968
     29 N          -8.4145  -15.8857   24.2171 N.3     1  UNL1       -0.2689
     30 C          -7.5485  -16.0403   23.0021 C.3     1  UNL1        0.0748
     31 C          -6.1431  -15.6834   23.3861 C.3     1  UNL1        0.0480
     32 C          -6.1405  -15.3083   24.8385 C.3     1  UNL1        0.1278
     33 O          -4.9441  -14.8828   25.6371 O.3     1  UNL1       -0.3830
     34 C          -7.5443  -15.4333   25.3520 C.3     1  UNL1        0.1017
     35 H          -5.2142  -14.6969   26.5499 H       1  UNL1        0.2104
@<TRIPOS>BOND
     1     1     2    1
     2     2     3   am
     3     3     4    2
     4     3     5    1
     5     5     6    1
     6     6     7    1
     7     7     8    1
     8     8     9   ar
     9     9    10   ar
    10    10    15    1
    11    15    16    1
    12    15    17    2
    13    15    18    2
    14    10    11   ar
    15    11    12   ar
    16    12    13   ar
    17    13    14    1
    18     2    21    1
    19    21    28    1
    20    28    29    1
    21    29    30    1
    22    30    31    1
    23    31    32    1
    24    32    33    1
    25    32    34    1
    26    21    22    1
    27    22    23   ar
    28    23    24   ar
    29    24    25   ar
    30    25    26   ar
    31    26    27   ar
    32    14     5    1
    33    34    29    1
    34    27    22   ar
    35    13     8   ar
    36    16    19    1
    37    16    20    1
    38    33    35    1
