@<TRIPOS>MOLECULE
*****
 30 32 0 0 0
SMALL
GASTEIGER

@<TRIPOS>ATOM
      1 C         -10.0920  -19.2043   21.3610 C.ar    1  UNL1        0.0303
      2 C          -8.6653  -18.7436   21.4072 C.ar    1  UNL1        0.0147
      3 C          -7.7816  -18.9183   20.2078 C.ar    1  UNL1        0.0505
      4 C          -8.3247  -19.5537   18.9622 C.ar    1  UNL1        0.0170
      5 C          -9.7514  -20.0144   18.9161 C.ar    1  UNL1        0.0307
      6 C         -10.6351  -19.8397   20.1155 C.ar    1  UNL1        0.1383
      7 F         -12.0619  -20.3004   20.0694 F       1  UNL1       -0.2044
      8 C         -10.0723  -20.1185   23.0589 C.3     1  UNL1        0.0336
      9 C         -10.9757  -19.0297   22.5605 C.3     1  UNL1        0.1262
     10 C         -11.5722  -18.0016   21.6456 C.2     1  UNL1        0.0068
     11 C         -12.7386  -17.1769   22.1031 C.2     1  UNL1        0.0357
     12 S         -13.3086  -17.3804   23.4756 S.3     1  UNL1       -0.0536
     13 C         -12.7121  -18.4085   24.3906 C.2     1  UNL1        0.1526
     14 N         -13.2820  -18.6120   25.7631 N.pl3   1  UNL1       -0.3378
     15 N         -11.5456  -19.2331   23.9330 N.2     1  UNL1       -0.2464
     16 H         -14.0476  -18.0707   26.0634 H       1  UNL1        0.1442
     17 H         -12.8905  -19.2868   26.3636 H       1  UNL1        0.1442
     18 N          -6.3548  -18.4576   20.2539 N.am    1  UNL1       -0.2791
     19 C          -5.2413  -19.4625   20.2376 C.2     1  UNL1        0.2681
     20 O          -5.5546  -20.9282   20.1752 O.2     1  UNL1       -0.2681
     21 H          -6.1492  -17.4957   20.2948 H       1  UNL1        0.1552
     22 C          -3.8146  -19.0019   20.2836 C.ar    1  UNL1        0.1453
     23 N          -3.0699  -18.7387   19.0084 N.ar    1  UNL1       -0.2377
     24 C          -1.6430  -18.2781   19.0546 C.ar    1  UNL1        0.1093
     25 C          -0.9610  -18.0806   20.3759 C.ar    1  UNL1        0.0884
     26 C          -1.7057  -18.3438   21.6510 C.ar    1  UNL1        0.0249
     27 C          -3.1325  -18.8044   21.6050 C.ar    1  UNL1        0.0804
     28 CL         -3.8772  -19.0676   22.8802 Cl      1  UNL1       -0.0805
     29 C           0.4657  -17.6200   20.4219 C.1     1  UNL1        0.1020
     30 N           1.8926  -17.1593   20.4681 N.1     1  UNL1       -0.1908
@<TRIPOS>BOND
     1     9     8    1
     2     9     1    1
     3     1     2   ar
     4     2     3   ar
     5     3    18    1
     6    18    19   am
     7    19    20    2
     8    19    22    1
     9    22    23   ar
    10    23    24   ar
    11    24    25   ar
    12    25    29    1
    13    29    30    3
    14    25    26   ar
    15    26    27   ar
    16    27    28    1
    17     3     4   ar
    18     4     5   ar
    19     5     6   ar
    20     6     7    1
    21     9    10    1
    22    10    11    2
    23    11    12    1
    24    12    13    1
    25    13    14    1
    26    13    15    2
    27    15     9    1
    28     6     1   ar
    29    27    22   ar
    30    18    21    1
    31    14    16    1
    32    14    17    1
@<TRIPOS>MOLECULE
*****
 30 32 0 0 0
SMALL
GASTEIGER

@<TRIPOS>ATOM
      1 C           3.6506   -0.9795   19.7883 C.ar    1  UNL1        0.0303
      2 C           4.0684   -1.8033   20.9701 C.ar    1  UNL1        0.0147
      3 C           4.7757   -3.1095   20.7614 C.ar    1  UNL1        0.0505
      4 C           5.0652   -3.5918   19.3709 C.ar    1  UNL1        0.0170
      5 C           4.6473   -2.7680   18.1891 C.ar    1  UNL1        0.0307
      6 C           3.9401   -1.4619   18.3978 C.ar    1  UNL1        0.1383
      7 F           3.5222   -0.6380   17.2160 F       1  UNL1       -0.2044
      8 C           4.3491    0.8177   19.8161 C.3     1  UNL1        0.0336
      9 C           2.9433    0.3267   19.9970 C.3     1  UNL1        0.1262
     10 C           1.7832   -0.6179   20.1055 C.2     1  UNL1        0.0068
     11 C           0.4040   -0.0858   20.3597 C.2     1  UNL1        0.0357
     12 S           0.1849    1.3910   20.5056 S.3     1  UNL1       -0.0536
     13 C           1.3450    2.3356   20.3972 C.2     1  UNL1        0.1526
     14 N           1.1260    3.8124   20.5430 N.pl3   1  UNL1       -0.3378
     15 N           2.7242    1.8035   20.1429 N.2     1  UNL1       -0.2464
     16 H           0.2208    4.1616   20.7099 H       1  UNL1        0.1442
     17 H           1.8874    4.4324   20.4719 H       1  UNL1        0.1442
     18 N           5.1936   -3.9334   21.9432 N.am    1  UNL1       -0.2791
     19 C           6.6036   -3.8578   22.4493 C.2     1  UNL1        0.2681
     20 O           7.5958   -2.9582   21.7735 O.2     1  UNL1       -0.2681
     21 H           4.5424   -4.5238   22.3867 H       1  UNL1        0.1552
     22 C           7.0215   -4.6816   23.6311 C.ar    1  UNL1        0.1453
     23 N           7.7317   -5.9863   23.4224 N.ar    1  UNL1       -0.2377
     24 C           8.1496   -6.8101   24.6042 C.ar    1  UNL1        0.1093
     25 C           7.8574   -6.3293   25.9947 C.ar    1  UNL1        0.0884
     26 C           7.1472   -5.0246   26.2033 C.ar    1  UNL1        0.0249
     27 C           6.7293   -4.2008   25.0216 C.ar    1  UNL1        0.0804
     28 CL          6.0191   -2.8962   25.2303 Cl      1  UNL1       -0.0805
     29 C           8.2753   -7.1531   27.1764 C.1     1  UNL1        0.1020
     30 N           8.6932   -7.9770   28.3583 N.1     1  UNL1       -0.1908
@<TRIPOS>BOND
     1     9     8    1
     2     9     1    1
     3     1     2   ar
     4     2     3   ar
     5     3    18    1
     6    18    19   am
     7    19    20    2
     8    19    22    1
     9    22    23   ar
    10    23    24   ar
    11    24    25   ar
    12    25    29    1
    13    29    30    3
    14    25    26   ar
    15    26    27   ar
    16    27    28    1
    17     3     4   ar
    18     4     5   ar
    19     5     6   ar
    20     6     7    1
    21     9    10    1
    22    10    11    2
    23    11    12    1
    24    12    13    1
    25    13    14    1
    26    13    15    2
    27    15     9    1
    28     6     1   ar
    29    27    22   ar
    30    18    21    1
    31    14    16    1
    32    14    17    1
@<TRIPOS>MOLECULE
*****
 30 32 0 0 0
SMALL
GASTEIGER

@<TRIPOS>ATOM
      1 C         -16.1810   -7.3834   19.0408 C.ar    1  UNL1        0.0303
      2 C         -16.6304   -6.0343   19.5183 C.ar    1  UNL1        0.0147
      3 C         -15.6180   -4.9674   19.8127 C.ar    1  UNL1        0.0505
      4 C         -14.1562   -5.2496   19.6296 C.ar    1  UNL1        0.0170
      5 C         -13.7068   -6.5987   19.1521 C.ar    1  UNL1        0.0307
      6 C         -14.7193   -7.6656   18.8577 C.ar    1  UNL1        0.1383
      7 F         -14.2699   -9.0147   18.3802 F       1  UNL1       -0.2044
      8 C         -16.8091   -8.8347   20.1445 C.3     1  UNL1        0.0336
      9 C         -17.1935   -8.4503   18.7464 C.3     1  UNL1        0.1262
     10 C         -17.2263   -7.6955   17.4507 C.2     1  UNL1        0.0068
     11 C         -18.1380   -8.1410   16.3460 C.2     1  UNL1        0.0357
     12 S         -19.0170   -9.3414   16.5372 S.3     1  UNL1       -0.0536
     13 C         -18.9842  -10.0963   17.8329 C.2     1  UNL1        0.1526
     14 N         -19.8631  -11.2967   18.0241 N.pl3   1  UNL1       -0.3378
     15 N         -18.0724   -9.6508   18.9376 N.2     1  UNL1       -0.2464
     16 H         -20.4615  -11.5891   17.2991 H       1  UNL1        0.1442
     17 H         -19.8415  -11.7922   18.8746 H       1  UNL1        0.1442
     18 N         -16.0673   -3.6183   20.2903 N.am    1  UNL1       -0.2791
     19 C         -16.6291   -2.6264   19.3153 C.2     1  UNL1        0.2681
     20 O         -16.7416   -2.9837   17.8627 O.2     1  UNL1       -0.2681
     21 H         -15.9935   -3.3838   21.2436 H       1  UNL1        0.1552
     22 C         -17.0784   -1.2773   19.7927 C.ar    1  UNL1        0.1453
     23 N         -18.4492   -1.1069   20.3775 N.ar    1  UNL1       -0.2377
     24 C         -18.8985    0.2422   20.8550 C.ar    1  UNL1        0.1093
     25 C         -17.9770    1.4209   20.7477 C.ar    1  UNL1        0.0884
     26 C         -16.6063    1.2505   20.1629 C.ar    1  UNL1        0.0249
     27 C         -16.1569   -0.0985   19.6854 C.ar    1  UNL1        0.0804
     28 CL        -14.7862   -0.2689   19.1006 Cl      1  UNL1       -0.0805
     29 C         -18.4263    2.7700   21.2252 C.1     1  UNL1        0.1020
     30 N         -18.8757    4.1192   21.7026 N.1     1  UNL1       -0.1908
@<TRIPOS>BOND
     1     9     8    1
     2     9     1    1
     3     1     2   ar
     4     2     3   ar
     5     3    18    1
     6    18    19   am
     7    19    20    2
     8    19    22    1
     9    22    23   ar
    10    23    24   ar
    11    24    25   ar
    12    25    29    1
    13    29    30    3
    14    25    26   ar
    15    26    27   ar
    16    27    28    1
    17     3     4   ar
    18     4     5   ar
    19     5     6   ar
    20     6     7    1
    21     9    10    1
    22    10    11    2
    23    11    12    1
    24    12    13    1
    25    13    14    1
    26    13    15    2
    27    15     9    1
    28     6     1   ar
    29    27    22   ar
    30    18    21    1
    31    14    16    1
    32    14    17    1
@<TRIPOS>MOLECULE
*****
 30 32 0 0 0
SMALL
GASTEIGER

@<TRIPOS>ATOM
      1 C           3.3303    0.5640   18.4587 C.ar    1  UNL1        0.0303
      2 C           1.8978    0.9968   18.5614 C.ar    1  UNL1        0.0147
      3 C           1.5509    2.4557   18.5283 C.ar    1  UNL1        0.0505
      4 C           2.6365    3.4819   18.3925 C.ar    1  UNL1        0.0170
      5 C           4.0690    3.0491   18.2898 C.ar    1  UNL1        0.0307
      6 C           4.4159    1.5902   18.3229 C.ar    1  UNL1        0.1383
      7 F           5.8485    1.1574   18.2202 F       1  UNL1       -0.2044
      8 C           3.6303   -0.6720   17.0092 C.3     1  UNL1        0.0336
      9 C           3.6773   -0.8950   18.4918 C.3     1  UNL1        0.1262
     10 C           3.6039   -0.6113   19.9629 C.2     1  UNL1        0.0068
     11 C           3.8611   -1.7090   20.9522 C.2     1  UNL1        0.0357
     12 S           4.1917   -3.0906   20.4704 S.3     1  UNL1       -0.0536
     13 C           4.2652   -3.3743   18.9993 C.2     1  UNL1        0.1526
     14 N           4.5959   -4.7558   18.5175 N.pl3   1  UNL1       -0.3378
     15 N           4.0080   -2.2765   18.0100 N.2     1  UNL1       -0.2464
     16 H           4.7647   -5.4763   19.1668 H       1  UNL1        0.1442
     17 H           4.6441   -4.9420   17.5519 H       1  UNL1        0.1442
     18 N           0.1183    2.8885   18.6310 N.am    1  UNL1       -0.2791
     19 C          -0.4408    3.3234   19.9532 C.2     1  UNL1        0.2681
     20 O           0.4327    3.3256   21.1727 O.2     1  UNL1       -0.2681
     21 H          -0.4550    2.8870   17.8307 H       1  UNL1        0.1552
     22 C          -1.8733    3.7562   20.0560 C.ar    1  UNL1        0.1453
     23 N          -2.8975    2.8275   20.6377 N.ar    1  UNL1       -0.2377
     24 C          -4.3301    3.2603   20.7404 C.ar    1  UNL1        0.1093
     25 C          -4.7383    4.6219   20.2615 C.ar    1  UNL1        0.0884
     26 C          -3.7141    5.5506   19.6798 C.ar    1  UNL1        0.0249
     27 C          -2.2816    5.1178   19.5770 C.ar    1  UNL1        0.0804
     28 CL         -1.2574    6.0466   18.9953 Cl      1  UNL1       -0.0805
     29 C          -6.1708    5.0546   20.3642 C.1     1  UNL1        0.1020
     30 N          -7.6034    5.4875   20.4670 N.1     1  UNL1       -0.1908
@<TRIPOS>BOND
     1     9     8    1
     2     9     1    1
     3     1     2   ar
     4     2     3   ar
     5     3    18    1
     6    18    19   am
     7    19    20    2
     8    19    22    1
     9    22    23   ar
    10    23    24   ar
    11    24    25   ar
    12    25    29    1
    13    29    30    3
    14    25    26   ar
    15    26    27   ar
    16    27    28    1
    17     3     4   ar
    18     4     5   ar
    19     5     6   ar
    20     6     7    1
    21     9    10    1
    22    10    11    2
    23    11    12    1
    24    12    13    1
    25    13    14    1
    26    13    15    2
    27    15     9    1
    28     6     1   ar
    29    27    22   ar
    30    18    21    1
    31    14    16    1
    32    14    17    1
@<TRIPOS>MOLECULE
*****
 30 32 0 0 0
SMALL
GASTEIGER

@<TRIPOS>ATOM
      1 C         -15.8401   -7.9650   18.1088 C.ar    1  UNL1        0.0303
      2 C         -15.6416   -6.4918   17.9085 C.ar    1  UNL1        0.0147
      3 C         -14.3664   -5.9820   17.3053 C.ar    1  UNL1        0.0505
      4 C         -13.2897   -6.9454   16.9023 C.ar    1  UNL1        0.0170
      5 C         -13.4881   -8.4186   17.1026 C.ar    1  UNL1        0.0307
      6 C         -14.7633   -8.9284   17.7058 C.ar    1  UNL1        0.1383
      7 F         -14.9618  -10.4017   17.9061 F       1  UNL1       -0.2044
      8 C         -16.2857   -8.3168   19.9517 C.3     1  UNL1        0.0336
      9 C         -17.1153   -8.4748   18.7120 C.3     1  UNL1        0.1262
     10 C         -17.5021   -8.4558   17.2629 C.2     1  UNL1        0.0068
     11 C         -18.8759   -8.8917   16.8475 C.2     1  UNL1        0.0357
     12 S         -19.8630   -9.3467   17.8813 S.3     1  UNL1       -0.0536
     13 C         -19.4763   -9.3657   19.3304 C.2     1  UNL1        0.1526
     14 N         -20.4634   -9.8207   20.3642 N.pl3   1  UNL1       -0.3378
     15 N         -18.1024   -8.9298   19.7458 N.2     1  UNL1       -0.2464
     16 H         -21.3651  -10.1068   20.0916 H       1  UNL1        0.1442
     17 H         -20.2095   -9.8332   21.3153 H       1  UNL1        0.1442
     18 N         -14.1679   -4.5087   17.1050 N.am    1  UNL1       -0.2791
     19 C         -13.1756   -3.7641   17.9483 C.2     1  UNL1        0.2681
     20 O         -12.3819   -4.4929   18.9918 O.2     1  UNL1       -0.2681
     21 H         -14.6889   -4.0304   16.4201 H       1  UNL1        0.1552
     22 C         -12.9771   -2.2909   17.7481 C.ar    1  UNL1        0.1453
     23 N         -11.9630   -1.7984   16.7586 N.ar    1  UNL1       -0.2377
     24 C         -11.7645   -0.3251   16.5584 C.ar    1  UNL1        0.1093
     25 C         -12.5800    0.6556   17.3476 C.ar    1  UNL1        0.0884
     26 C         -13.5941    0.1632   18.3371 C.ar    1  UNL1        0.0249
     27 C         -13.7927   -1.3101   18.5374 C.ar    1  UNL1        0.0804
     28 CL        -14.8067   -1.8026   19.5268 Cl      1  UNL1       -0.0805
     29 C         -12.3815    2.1289   17.1474 C.1     1  UNL1        0.1020
     30 N         -12.1830    3.6022   16.9472 N.1     1  UNL1       -0.1908
@<TRIPOS>BOND
     1     9     8    1
     2     9     1    1
     3     1     2   ar
     4     2     3   ar
     5     3    18    1
     6    18    19   am
     7    19    20    2
     8    19    22    1
     9    22    23   ar
    10    23    24   ar
    11    24    25   ar
    12    25    29    1
    13    29    30    3
    14    25    26   ar
    15    26    27   ar
    16    27    28    1
    17     3     4   ar
    18     4     5   ar
    19     5     6   ar
    20     6     7    1
    21     9    10    1
    22    10    11    2
    23    11    12    1
    24    12    13    1
    25    13    14    1
    26    13    15    2
    27    15     9    1
    28     6     1   ar
    29    27    22   ar
    30    18    21    1
    31    14    16    1
    32    14    17    1
@<TRIPOS>MOLECULE
*****
 30 32 0 0 0
SMALL
GASTEIGER

@<TRIPOS>ATOM
      1 C           4.1158   -1.2502   20.6392 C.ar    1  UNL1        0.0303
      2 C           4.2452   -1.7695   22.0405 C.ar    1  UNL1        0.0147
      3 C           4.9814   -3.0502   22.3006 C.ar    1  UNL1        0.0505
      4 C           5.5881   -3.8117   21.1595 C.ar    1  UNL1        0.0170
      5 C           5.4587   -3.2924   19.7583 C.ar    1  UNL1        0.0307
      6 C           4.7225   -2.0116   19.4981 C.ar    1  UNL1        0.1383
      7 F           4.5931   -1.4923   18.0968 F       1  UNL1       -0.2044
      8 C           4.7830    0.5516   20.4743 C.3     1  UNL1        0.0336
      9 C           3.3796    0.0306   20.3790 C.3     1  UNL1        0.1262
     10 C           2.2319   -0.9351   20.3741 C.2     1  UNL1        0.0068
     11 C           0.8354   -0.4392   20.1420 C.2     1  UNL1        0.0357
     12 S           0.5866    1.0225   19.9149 S.3     1  UNL1       -0.0536
     13 C           1.7343    1.9883   19.9198 C.2     1  UNL1        0.1526
     14 N           1.4856    3.4500   19.6927 N.pl3   1  UNL1       -0.3378
     15 N           3.1308    1.4923   20.1519 N.2     1  UNL1       -0.2464
     16 H           0.5690    3.7755   19.5404 H       1  UNL1        0.1442
     17 H           2.2389    4.0838   19.6960 H       1  UNL1        0.1442
     18 N           5.1108   -3.5696   23.7019 N.am    1  UNL1       -0.2791
     19 C           6.4247   -3.4731   24.4192 C.2     1  UNL1        0.2681
     20 O           7.6091   -2.8572   23.7351 O.2     1  UNL1       -0.2681
     21 H           4.3334   -3.9738   24.1509 H       1  UNL1        0.1552
     22 C           6.5542   -3.9924   25.8204 C.ar    1  UNL1        0.1453
     23 N           6.1449   -3.1329   26.9796 N.ar    1  UNL1       -0.2377
     24 C           6.2745   -3.6523   28.3809 C.ar    1  UNL1        0.1093
     25 C           6.8132   -5.0311   28.6229 C.ar    1  UNL1        0.0884
     26 C           7.2224   -5.8906   27.4637 C.ar    1  UNL1        0.0249
     27 C           7.0929   -5.3713   26.0624 C.ar    1  UNL1        0.0804
     28 CL          7.5021   -6.2308   24.9032 Cl      1  UNL1       -0.0805
     29 C           6.9426   -5.5505   30.0241 C.1     1  UNL1        0.1020
     30 N           7.0722   -6.0698   31.4254 N.1     1  UNL1       -0.1908
@<TRIPOS>BOND
     1     9     8    1
     2     9     1    1
     3     1     2   ar
     4     2     3   ar
     5     3    18    1
     6    18    19   am
     7    19    20    2
     8    19    22    1
     9    22    23   ar
    10    23    24   ar
    11    24    25   ar
    12    25    29    1
    13    29    30    3
    14    25    26   ar
    15    26    27   ar
    16    27    28    1
    17     3     4   ar
    18     4     5   ar
    19     5     6   ar
    20     6     7    1
    21     9    10    1
    22    10    11    2
    23    11    12    1
    24    12    13    1
    25    13    14    1
    26    13    15    2
    27    15     9    1
    28     6     1   ar
    29    27    22   ar
    30    18    21    1
    31    14    16    1
    32    14    17    1
@<TRIPOS>MOLECULE
*****
 30 32 0 0 0
SMALL
GASTEIGER

@<TRIPOS>ATOM
      1 C           7.4630   -4.8032   25.8858 C.ar    1  UNL1        0.0303
      2 C           6.5983   -3.8446   25.1221 C.ar    1  UNL1        0.0147
      3 C           6.8064   -3.6574   23.6485 C.ar    1  UNL1        0.0505
      4 C           7.8791   -4.4289   22.9386 C.ar    1  UNL1        0.0170
      5 C           8.7438   -5.3875   23.7023 C.ar    1  UNL1        0.0307
      6 C           8.5357   -5.5747   25.1759 C.ar    1  UNL1        0.1383
      7 F           9.4004   -6.5334   25.9397 F       1  UNL1       -0.2044
      8 C           6.4895   -6.1697   26.8365 C.3     1  UNL1        0.0336
      9 C           7.2549   -4.9904   27.3595 C.3     1  UNL1        0.1262
     10 C           8.0925   -3.7462   27.3707 C.2     1  UNL1        0.0068
     11 C           8.4563   -3.0986   28.6739 C.2     1  UNL1        0.0357
     12 S           7.9824   -3.6954   29.9660 S.3     1  UNL1       -0.0536
     13 C           7.1448   -4.9397   29.9548 C.2     1  UNL1        0.1526
     14 N           6.6709   -5.5364   31.2468 N.pl3   1  UNL1       -0.3378
     15 N           6.7810   -5.5872   28.6516 N.2     1  UNL1       -0.2464
     16 H           6.9096   -5.1115   32.1022 H       1  UNL1        0.1442
     17 H           6.1211   -6.3531   31.2394 H       1  UNL1        0.1442
     18 N           5.9417   -2.6987   22.8847 N.am    1  UNL1       -0.2791
     19 C           4.8258   -3.2159   22.0260 C.2     1  UNL1        0.2681
     20 O           4.5745   -4.6917   21.9312 O.2     1  UNL1       -0.2681
     21 H           6.1066   -1.7301   22.9470 H       1  UNL1        0.1552
     22 C           3.9611   -2.2573   21.2623 C.ar    1  UNL1        0.1453
     23 N           3.0191   -1.3491   21.9956 N.ar    1  UNL1       -0.2377
     24 C           2.1544   -0.3904   21.2318 C.ar    1  UNL1        0.1093
     25 C           2.2317   -0.3400   19.7346 C.ar    1  UNL1        0.0884
     26 C           3.1737   -1.2482   19.0013 C.ar    1  UNL1        0.0249
     27 C           4.0384   -2.2068   19.7650 C.ar    1  UNL1        0.0804
     28 CL          4.9804   -3.1150   19.0317 Cl      1  UNL1       -0.0805
     29 C           1.3670    0.6186   18.9709 C.1     1  UNL1        0.1020
     30 N           0.5023    1.5772   18.2070 N.1     1  UNL1       -0.1908
@<TRIPOS>BOND
     1     9     8    1
     2     9     1    1
     3     1     2   ar
     4     2     3   ar
     5     3    18    1
     6    18    19   am
     7    19    20    2
     8    19    22    1
     9    22    23   ar
    10    23    24   ar
    11    24    25   ar
    12    25    29    1
    13    29    30    3
    14    25    26   ar
    15    26    27   ar
    16    27    28    1
    17     3     4   ar
    18     4     5   ar
    19     5     6   ar
    20     6     7    1
    21     9    10    1
    22    10    11    2
    23    11    12    1
    24    12    13    1
    25    13    14    1
    26    13    15    2
    27    15     9    1
    28     6     1   ar
    29    27    22   ar
    30    18    21    1
    31    14    16    1
    32    14    17    1
@<TRIPOS>MOLECULE
*****
 30 32 0 0 0
SMALL
GASTEIGER

@<TRIPOS>ATOM
      1 C           3.1094   -0.6094   19.6550 C.ar    1  UNL1        0.0303
      2 C           2.1304   -0.2181   20.7220 C.ar    1  UNL1        0.0147
      3 C           1.0073    0.7227   20.4008 C.ar    1  UNL1        0.0505
      4 C           0.8631    1.2723   19.0126 C.ar    1  UNL1        0.0170
      5 C           1.8420    0.8811   17.9456 C.ar    1  UNL1        0.0307
      6 C           2.9652   -0.0598   18.2668 C.ar    1  UNL1        0.1383
      7 F           3.9442   -0.4511   17.1998 F       1  UNL1       -0.2044
      8 C           4.8444   -0.2539   20.4179 C.3     1  UNL1        0.0336
      9 C           4.2326   -1.5503   19.9762 C.3     1  UNL1        0.1262
     10 C           3.2308   -2.5199   19.4230 C.2     1  UNL1        0.0068
     11 C           3.5646   -3.9802   19.3444 C.2     1  UNL1        0.0357
     12 S           4.9003   -4.4708   19.8190 S.3     1  UNL1       -0.0536
     13 C           5.9021   -3.5012   20.3722 C.2     1  UNL1        0.1526
     14 N           7.2379   -3.9918   20.8467 N.pl3   1  UNL1       -0.3378
     15 N           5.5684   -2.0409   20.4508 N.2     1  UNL1       -0.2464
     16 H           7.4570   -4.9503   20.7951 H       1  UNL1        0.1442
     17 H           7.8954   -3.3554   21.2098 H       1  UNL1        0.1442
     18 N           0.0283    1.1140   21.4679 N.am    1  UNL1       -0.2791
     19 C           0.1386    2.4545   22.1318 C.2     1  UNL1        0.2681
     20 O           1.2280    3.4038   21.7288 O.2     1  UNL1       -0.2681
     21 H          -0.6867    0.4910   21.7324 H       1  UNL1        0.1552
     22 C          -0.8403    2.8459   23.1988 C.ar    1  UNL1        0.1453
     23 N          -0.5561    2.5173   24.6345 N.ar    1  UNL1       -0.2377
     24 C          -1.5351    2.9087   25.7015 C.ar    1  UNL1        0.1093
     25 C          -2.7983    3.6286   25.3328 C.ar    1  UNL1        0.0884
     26 C          -3.0826    3.9571   23.8971 C.ar    1  UNL1        0.0249
     27 C          -2.1036    3.5658   22.8301 C.ar    1  UNL1        0.0804
     28 CL         -2.3879    3.8944   21.3944 Cl      1  UNL1       -0.0805
     29 C          -3.7773    4.0199   26.3998 C.1     1  UNL1        0.1020
     30 N          -4.7562    4.4112   27.4668 N.1     1  UNL1       -0.1908
@<TRIPOS>BOND
     1     9     8    1
     2     9     1    1
     3     1     2   ar
     4     2     3   ar
     5     3    18    1
     6    18    19   am
     7    19    20    2
     8    19    22    1
     9    22    23   ar
    10    23    24   ar
    11    24    25   ar
    12    25    29    1
    13    29    30    3
    14    25    26   ar
    15    26    27   ar
    16    27    28    1
    17     3     4   ar
    18     4     5   ar
    19     5     6   ar
    20     6     7    1
    21     9    10    1
    22    10    11    2
    23    11    12    1
    24    12    13    1
    25    13    14    1
    26    13    15    2
    27    15     9    1
    28     6     1   ar
    29    27    22   ar
    30    18    21    1
    31    14    16    1
    32    14    17    1
@<TRIPOS>MOLECULE
*****
 30 32 0 0 0
SMALL
GASTEIGER

@<TRIPOS>ATOM
      1 C           7.7858   -6.1815   27.0910 C.ar    1  UNL1        0.0303
      2 C           8.1044   -5.0426   26.1684 C.ar    1  UNL1        0.0147
      3 C           8.4316   -5.3121   24.7295 C.ar    1  UNL1        0.0505
      4 C           8.4403   -6.7205   24.2134 C.ar    1  UNL1        0.0170
      5 C           8.1217   -7.8594   25.1361 C.ar    1  UNL1        0.0307
      6 C           7.7945   -7.5899   26.5749 C.ar    1  UNL1        0.1383
      7 F           7.4759   -8.7288   27.4977 F       1  UNL1       -0.2044
      8 C           6.1634   -5.5105   27.8886 C.3     1  UNL1        0.0336
      9 C           7.4586   -5.9120   28.5300 C.3     1  UNL1        0.1262
     10 C           8.8673   -6.4072   28.6716 C.2     1  UNL1        0.0068
     11 C           9.4991   -6.4934   30.0293 C.2     1  UNL1        0.0357
     12 S           8.7220   -6.0845   31.2454 S.3     1  UNL1       -0.0536
     13 C           7.3132   -5.5894   31.1038 C.2     1  UNL1        0.1526
     14 N           6.5361   -5.1804   32.3200 N.pl3   1  UNL1       -0.3378
     15 N           6.6815   -5.5031   29.7461 N.2     1  UNL1       -0.2464
     16 H           6.9508   -5.2370   33.2111 H       1  UNL1        0.1442
     17 H           5.6115   -4.8555   32.2270 H       1  UNL1        0.1442
     18 N           8.7502   -4.1732   23.8068 N.am    1  UNL1       -0.2791
     19 C           7.8279   -3.8493   22.6689 C.2     1  UNL1        0.2681
     20 O           6.5871   -4.6644   22.4539 O.2     1  UNL1       -0.2681
     21 H           9.5645   -3.6382   23.9479 H       1  UNL1        0.1552
     22 C           8.1464   -2.7105   21.7462 C.ar    1  UNL1        0.1453
     23 N           7.6112   -1.3392   22.0347 N.ar    1  UNL1       -0.2377
     24 C           7.9298   -0.2003   21.1118 C.ar    1  UNL1        0.1093
     25 C           8.7835   -0.4327   19.9006 C.ar    1  UNL1        0.0884
     26 C           9.3187   -1.8040   19.6121 C.ar    1  UNL1        0.0249
     27 C           9.0002   -2.9428   20.5349 C.ar    1  UNL1        0.0804
     28 CL          9.5354   -4.3141   20.2464 Cl      1  UNL1       -0.0805
     29 C           9.1020    0.7061   18.9779 C.1     1  UNL1        0.1020
     30 N           9.4206    1.8450   18.0550 N.1     1  UNL1       -0.1908
@<TRIPOS>BOND
     1     9     8    1
     2     9     1    1
     3     1     2   ar
     4     2     3   ar
     5     3    18    1
     6    18    19   am
     7    19    20    2
     8    19    22    1
     9    22    23   ar
    10    23    24   ar
    11    24    25   ar
    12    25    29    1
    13    29    30    3
    14    25    26   ar
    15    26    27   ar
    16    27    28    1
    17     3     4   ar
    18     4     5   ar
    19     5     6   ar
    20     6     7    1
    21     9    10    1
    22    10    11    2
    23    11    12    1
    24    12    13    1
    25    13    14    1
    26    13    15    2
    27    15     9    1
    28     6     1   ar
    29    27    22   ar
    30    18    21    1
    31    14    16    1
    32    14    17    1
