@<TRIPOS>MOLECULE
*****
 19 20 0 0 0
SMALL
GASTEIGER

@<TRIPOS>ATOM
      1 N          -9.7679  -19.7090   22.9626 N.3     1  UNL1       -0.2665
      2 C         -10.9557  -19.6937   22.0466 C.3     1  UNL1        0.0986
      3 C         -10.9803  -19.6375   20.5479 C.2     1  UNL1       -0.0134
      4 C          -9.8233  -19.5828   19.5949 C.2     1  UNL1       -0.0289
      5 C          -8.3558  -19.5707   19.9053 C.3     1  UNL1        0.0315
      6 C          -7.6830  -19.6104   21.2454 C.3     1  UNL1        0.0427
      7 C          -8.3113  -19.6719   22.6059 C.3     1  UNL1        0.0771
      8 C          -6.1834  -19.5852   21.2217 C.ar    1  UNL1       -0.0199
      9 C          -5.4354  -20.4013   20.2094 C.ar    1  UNL1       -0.0033
     10 C          -3.9357  -20.3761   20.1857 C.ar    1  UNL1        0.0119
     11 C          -3.1841  -19.5347   21.1742 C.ar    1  UNL1        0.0682
     12 CL         -1.6845  -19.5095   21.1505 Cl      1  UNL1       -0.0814
     13 C          -3.9320  -18.7186   22.1865 C.ar    1  UNL1        0.0679
     14 CL         -3.1804  -17.8774   23.1749 Cl      1  UNL1       -0.0814
     15 C          -5.4316  -18.7438   22.2102 C.ar    1  UNL1        0.0080
     16 C         -10.0776  -19.7693   24.4290 C.3     1  UNL1        0.1048
     17 C          -9.9243  -18.5430   25.2790 C.3     1  UNL1        0.1595
     18 C          -8.6255  -16.2954   25.1716 C.3     1  UNL1        0.1742
     19 O          -9.6875  -17.2090   24.6353 O.3     1  UNL1       -0.3496
@<TRIPOS>BOND
     1    18    19    1
     2    19    17    1
     3    17    16    1
     4    16     1    1
     5     1     2    1
     6     2     3    1
     7     3     4    2
     8     4     5    1
     9     5     6    1
    10     6     8    1
    11     8     9   ar
    12     9    10   ar
    13    10    11   ar
    14    11    12    1
    15    11    13   ar
    16    13    14    1
    17    13    15   ar
    18     6     7    1
    19     7     1    1
    20    15     8   ar
@<TRIPOS>MOLECULE
*****
 19 20 0 0 0
SMALL
GASTEIGER

@<TRIPOS>ATOM
      1 N          -4.7588  -18.4237   22.2202 N.3     1  UNL1       -0.2665
      2 C          -3.9867  -19.3065   21.2850 C.3     1  UNL1        0.0986
      3 C          -4.5031  -20.3726   20.3650 C.2     1  UNL1       -0.0134
      4 C          -5.9192  -20.8195   20.1528 C.2     1  UNL1       -0.0289
      5 C          -7.1687  -20.3104   20.8084 C.3     1  UNL1        0.0315
      6 C          -7.3106  -19.2288   21.8379 C.3     1  UNL1        0.0427
      7 C          -6.2382  -18.3892   22.4662 C.3     1  UNL1        0.0771
      8 C          -8.7100  -18.9500   22.3003 C.ar    1  UNL1       -0.0199
      9 C          -9.4112  -19.9248   23.1993 C.ar    1  UNL1       -0.0033
     10 C         -10.8106  -19.6460   23.6617 C.ar    1  UNL1        0.0119
     11 C         -11.5090  -18.3924   23.2251 C.ar    1  UNL1        0.0682
     12 CL        -12.9084  -18.1136   23.6875 Cl      1  UNL1       -0.0814
     13 C         -10.8079  -17.4175   22.3261 C.ar    1  UNL1        0.0679
     14 CL        -11.5062  -16.1639   21.8895 Cl      1  UNL1       -0.0814
     15 C          -9.4084  -17.6963   21.8637 C.ar    1  UNL1        0.0080
     16 C          -3.9440  -17.4462   23.0143 C.3     1  UNL1        0.1048
     17 C          -2.5481  -17.1078   22.5820 C.3     1  UNL1        0.1595
     18 C          -1.3179  -16.8882   20.3042 C.3     1  UNL1        0.1742
     19 O          -2.3190  -16.3723   21.2950 O.3     1  UNL1       -0.3496
@<TRIPOS>BOND
     1    18    19    1
     2    19    17    1
     3    17    16    1
     4    16     1    1
     5     1     2    1
     6     2     3    1
     7     3     4    2
     8     4     5    1
     9     5     6    1
    10     6     8    1
    11     8     9   ar
    12     9    10   ar
    13    10    11   ar
    14    11    12    1
    15    11    13   ar
    16    13    14    1
    17    13    15   ar
    18     6     7    1
    19     7     1    1
    20    15     8   ar
@<TRIPOS>MOLECULE
*****
 19 20 0 0 0
SMALL
GASTEIGER

@<TRIPOS>ATOM
      1 N          -5.6744  -15.9241   24.4918 N.3     1  UNL1       -0.2665
      2 C          -5.3268  -15.4697   25.8785 C.3     1  UNL1        0.0986
      3 C          -6.2372  -15.2742   27.0543 C.2     1  UNL1       -0.0134
      4 C          -7.7203  -15.4847   27.1341 C.2     1  UNL1       -0.0289
      5 C          -8.6591  -15.9428   26.0576 C.3     1  UNL1        0.0315
      6 C          -8.3467  -16.3035   24.6355 C.3     1  UNL1        0.0427
      7 C          -7.0185  -16.2952   23.9387 C.3     1  UNL1        0.0771
      8 C          -9.5175  -16.7287   23.7998 C.ar    1  UNL1       -0.0199
      9 C         -10.4728  -17.7627   24.3179 C.ar    1  UNL1       -0.0033
     10 C         -11.6435  -18.1880   23.4821 C.ar    1  UNL1        0.0119
     11 C         -11.8590  -17.5792   22.1283 C.ar    1  UNL1        0.0682
     12 CL        -13.0298  -18.0044   21.2925 Cl      1  UNL1       -0.0814
     13 C         -10.9038  -16.5452   21.6101 C.ar    1  UNL1        0.0679
     14 CL        -11.1193  -15.9365   20.2563 Cl      1  UNL1       -0.0814
     15 C          -9.7330  -16.1200   22.4459 C.ar    1  UNL1        0.0080
     16 C          -4.5263  -16.0202   23.5313 C.3     1  UNL1        0.1048
     17 C          -3.9180  -17.3556   23.2207 C.3     1  UNL1        0.1595
     18 C          -5.2876  -19.3094   22.1927 C.3     1  UNL1        0.1742
     19 O          -4.3786  -18.1287   22.0206 O.3     1  UNL1       -0.3496
@<TRIPOS>BOND
     1    18    19    1
     2    19    17    1
     3    17    16    1
     4    16     1    1
     5     1     2    1
     6     2     3    1
     7     3     4    2
     8     4     5    1
     9     5     6    1
    10     6     8    1
    11     8     9   ar
    12     9    10   ar
    13    10    11   ar
    14    11    12    1
    15    11    13   ar
    16    13    14    1
    17    13    15   ar
    18     6     7    1
    19     7     1    1
    20    15     8   ar
@<TRIPOS>MOLECULE
*****
 19 20 0 0 0
SMALL
GASTEIGER

@<TRIPOS>ATOM
      1 N          -9.8756  -18.9014   22.4563 N.3     1  UNL1       -0.2665
      2 C         -10.9689  -19.0870   21.4461 C.3     1  UNL1        0.0986
      3 C         -10.8503  -19.4520   19.9961 C.2     1  UNL1       -0.0134
      4 C          -9.6092  -19.7216   19.1980 C.2     1  UNL1       -0.0289
      5 C          -8.1801  -19.6928   19.6528 C.3     1  UNL1        0.0315
      6 C          -7.6393  -19.3873   21.0182 C.3     1  UNL1        0.0427
      7 C          -8.3937  -19.0351   22.2658 C.3     1  UNL1        0.0771
      8 C          -6.1464  -19.4411   21.1538 C.ar    1  UNL1       -0.0199
      9 C          -5.3363  -20.2723   20.2034 C.ar    1  UNL1       -0.0033
     10 C          -3.8434  -20.3260   20.3390 C.ar    1  UNL1        0.0119
     11 C          -3.1605  -19.5486   21.4249 C.ar    1  UNL1        0.0682
     12 CL         -1.6676  -19.6024   21.5605 Cl      1  UNL1       -0.0814
     13 C          -3.9705  -18.7175   22.3753 C.ar    1  UNL1        0.0679
     14 CL         -3.2876  -17.9401   23.4612 Cl      1  UNL1       -0.0814
     15 C          -5.4634  -18.6637   22.2397 C.ar    1  UNL1        0.0080
     16 C         -10.3234  -18.5336   23.8398 C.3     1  UNL1        0.1048
     17 C         -11.4847  -19.2467   24.4667 C.3     1  UNL1        0.1595
     18 C         -13.6367  -17.9898   23.7324 C.3     1  UNL1        0.1742
     19 O         -12.7297  -18.4876   24.8185 O.3     1  UNL1       -0.3496
@<TRIPOS>BOND
     1    18    19    1
     2    19    17    1
     3    17    16    1
     4    16     1    1
     5     1     2    1
     6     2     3    1
     7     3     4    2
     8     4     5    1
     9     5     6    1
    10     6     8    1
    11     8     9   ar
    12     9    10   ar
    13    10    11   ar
    14    11    12    1
    15    11    13   ar
    16    13    14    1
    17    13    15   ar
    18     6     7    1
    19     7     1    1
    20    15     8   ar
@<TRIPOS>MOLECULE
*****
 19 20 0 0 0
SMALL
GASTEIGER

@<TRIPOS>ATOM
      1 N          -4.8447  -18.6039   22.0754 N.3     1  UNL1       -0.2665
      2 C          -3.8175  -17.7696   22.7818 C.3     1  UNL1        0.0986
      3 C          -4.0279  -16.5683   23.6549 C.2     1  UNL1       -0.0134
      4 C          -5.3175  -15.9044   24.0375 C.2     1  UNL1       -0.0289
      5 C          -6.7152  -16.2780   23.6413 C.3     1  UNL1        0.0315
      6 C          -7.1684  -17.4077   22.7648 C.3     1  UNL1        0.0427
      7 C          -6.3361  -18.4428   22.0679 C.3     1  UNL1        0.0771
      8 C          -8.6501  -17.5167   22.5578 C.ar    1  UNL1       -0.0199
      9 C          -9.5605  -16.4417   23.0731 C.ar    1  UNL1       -0.0033
     10 C         -11.0422  -16.5507   22.8661 C.ar    1  UNL1        0.0119
     11 C         -11.6134  -17.7347   22.1437 C.ar    1  UNL1        0.0682
     12 CL        -13.0950  -17.8437   21.9367 Cl      1  UNL1       -0.0814
     13 C         -10.7030  -18.8097   21.6283 C.ar    1  UNL1        0.0679
     14 CL        -11.2742  -19.9936   20.9059 Cl      1  UNL1       -0.0814
     15 C          -9.2214  -18.7007   21.8353 C.ar    1  UNL1        0.0080
     16 C          -4.3099  -19.7509   21.2702 C.3     1  UNL1        0.1048
     17 C          -3.8435  -19.5260   19.8625 C.3     1  UNL1        0.1595
     18 C          -2.5741  -17.4684   18.9111 C.3     1  UNL1        0.1742
     19 O          -3.8618  -18.1447   19.2779 O.3     1  UNL1       -0.3496
@<TRIPOS>BOND
     1    18    19    1
     2    19    17    1
     3    17    16    1
     4    16     1    1
     5     1     2    1
     6     2     3    1
     7     3     4    2
     8     4     5    1
     9     5     6    1
    10     6     8    1
    11     8     9   ar
    12     9    10   ar
    13    10    11   ar
    14    11    12    1
    15    11    13   ar
    16    13    14    1
    17    13    15   ar
    18     6     7    1
    19     7     1    1
    20    15     8   ar
@<TRIPOS>MOLECULE
*****
 19 20 0 0 0
SMALL
GASTEIGER

@<TRIPOS>ATOM
      1 N          -9.8500  -18.6325   22.2542 N.3     1  UNL1       -0.2665
      2 C         -10.8813  -19.0636   21.2538 C.3     1  UNL1        0.0986
      3 C         -10.6732  -19.6137   19.8740 C.2     1  UNL1       -0.0134
      4 C          -9.3825  -19.8687   19.1536 C.2     1  UNL1       -0.0289
      5 C          -7.9810  -19.6365   19.6352 C.3     1  UNL1        0.0315
      6 C          -7.5242  -19.0920   20.9561 C.3     1  UNL1        0.0427
      7 C          -8.3558  -18.6452   22.1216 C.3     1  UNL1        0.0771
      8 C          -6.0391  -18.9794   21.1351 C.ar    1  UNL1       -0.0199
      9 C          -5.4587  -18.8277   22.5100 C.ar    1  UNL1       -0.0033
     10 C          -3.9737  -18.7151   22.6890 C.ar    1  UNL1        0.0119
     11 C          -3.0691  -18.7543   21.4931 C.ar    1  UNL1        0.0682
     12 CL         -1.5840  -18.6417   21.6721 Cl      1  UNL1       -0.0814
     13 C          -3.6494  -18.9060   20.1183 C.ar    1  UNL1        0.0679
     14 CL         -2.7448  -18.9451   18.9225 Cl      1  UNL1       -0.0814
     15 C          -5.1344  -19.0186   19.9392 C.ar    1  UNL1        0.0080
     16 C         -10.3833  -18.1212   23.5596 C.3     1  UNL1        0.1048
     17 C         -11.2864  -18.9839   24.3903 C.3     1  UNL1        0.1595
     18 C         -13.5307  -17.9406   23.5998 C.3     1  UNL1        0.1742
     19 O         -12.6866  -18.5357   24.6878 O.3     1  UNL1       -0.3496
@<TRIPOS>BOND
     1    18    19    1
     2    19    17    1
     3    17    16    1
     4    16     1    1
     5     1     2    1
     6     2     3    1
     7     3     4    2
     8     4     5    1
     9     5     6    1
    10     6     8    1
    11     8     9   ar
    12     9    10   ar
    13    10    11   ar
    14    11    12    1
    15    11    13   ar
    16    13    14    1
    17    13    15   ar
    18     6     7    1
    19     7     1    1
    20    15     8   ar
@<TRIPOS>MOLECULE
*****
 19 20 0 0 0
SMALL
GASTEIGER

@<TRIPOS>ATOM
      1 N         -10.8511  -18.2265   21.0604 N.3     1  UNL1       -0.2665
      2 C         -10.6077  -19.1479   19.9020 C.3     1  UNL1        0.0986
      3 C          -9.3051  -19.7007   19.4044 C.2     1  UNL1       -0.0134
      4 C          -7.9242  -19.4687   19.9421 C.2     1  UNL1       -0.0289
      5 C          -7.5048  -18.6265   21.1104 C.3     1  UNL1        0.0315
      6 C          -8.3628  -17.8083   22.0294 C.3     1  UNL1        0.0427
      7 C          -9.8519  -17.6303   22.0072 C.3     1  UNL1        0.0771
      8 C          -7.6353  -17.0707   23.1141 C.ar    1  UNL1       -0.0199
      9 C          -6.1486  -16.8891   23.0308 C.ar    1  UNL1       -0.0033
     10 C          -5.4211  -16.1514   24.1155 C.ar    1  UNL1        0.0119
     11 C          -6.1803  -15.5954   25.2836 C.ar    1  UNL1        0.0682
     12 CL         -5.4528  -14.8577   26.3683 Cl      1  UNL1       -0.0814
     13 C          -7.6669  -15.7769   25.3670 C.ar    1  UNL1        0.0679
     14 CL         -8.4260  -15.2208   26.5350 Cl      1  UNL1       -0.0814
     15 C          -8.3944  -16.5145   24.2822 C.ar    1  UNL1        0.0080
     16 C         -12.2829  -17.8516   21.3042 C.3     1  UNL1        0.1048
     17 C         -12.6692  -17.1514   22.5732 C.3     1  UNL1        0.1595
     18 C         -14.2222  -18.2590   24.3371 C.3     1  UNL1        0.1742
     19 O         -12.8445  -17.9362   23.8394 O.3     1  UNL1       -0.3496
@<TRIPOS>BOND
     1    18    19    1
     2    19    17    1
     3    17    16    1
     4    16     1    1
     5     1     2    1
     6     2     3    1
     7     3     4    2
     8     4     5    1
     9     5     6    1
    10     6     8    1
    11     8     9   ar
    12     9    10   ar
    13    10    11   ar
    14    11    12    1
    15    11    13   ar
    16    13    14    1
    17    13    15   ar
    18     6     7    1
    19     7     1    1
    20    15     8   ar
@<TRIPOS>MOLECULE
*****
 19 20 0 0 0
SMALL
GASTEIGER

@<TRIPOS>ATOM
      1 N          -5.4964  -18.2398   22.4452 N.3     1  UNL1       -0.2665
      2 C          -4.4546  -17.2839   22.9462 C.3     1  UNL1        0.0986
      3 C          -4.6427  -16.0371   23.7586 C.2     1  UNL1       -0.0134
      4 C          -5.9190  -15.4381   24.2706 C.2     1  UNL1       -0.0289
      5 C          -7.3225  -15.9380   24.0968 C.3     1  UNL1        0.0315
      6 C          -7.7963  -17.1604   23.3679 C.3     1  UNL1        0.0427
      7 C          -6.9837  -18.1848   22.6329 C.3     1  UNL1        0.0771
      8 C          -9.2788  -17.3886   23.3749 C.ar    1  UNL1       -0.0199
      9 C          -9.8996  -18.2530   24.4321 C.ar    1  UNL1       -0.0033
     10 C         -11.3822  -18.4812   24.4392 C.ar    1  UNL1        0.0119
     11 C         -12.2439  -17.8450   23.3891 C.ar    1  UNL1        0.0682
     12 CL        -13.7264  -18.0732   23.3962 Cl      1  UNL1       -0.0814
     13 C         -11.6231  -16.9807   22.3319 C.ar    1  UNL1        0.0679
     14 CL        -12.4848  -16.3445   21.2819 Cl      1  UNL1       -0.0814
     15 C         -10.1406  -16.7525   22.3248 C.ar    1  UNL1        0.0080
     16 C          -4.9832  -19.4046   21.6516 C.3     1  UNL1        0.1048
     17 C          -5.6784  -19.8155   20.3876 C.3     1  UNL1        0.1595
     18 C          -8.0821  -19.4749   19.4621 C.3     1  UNL1        0.1742
     19 O          -6.7236  -18.9256   19.7831 O.3     1  UNL1       -0.3496
@<TRIPOS>BOND
     1    18    19    1
     2    19    17    1
     3    17    16    1
     4    16     1    1
     5     1     2    1
     6     2     3    1
     7     3     4    2
     8     4     5    1
     9     5     6    1
    10     6     8    1
    11     8     9   ar
    12     9    10   ar
    13    10    11   ar
    14    11    12    1
    15    11    13   ar
    16    13    14    1
    17    13    15   ar
    18     6     7    1
    19     7     1    1
    20    15     8   ar
@<TRIPOS>MOLECULE
*****
 19 20 0 0 0
SMALL
GASTEIGER

@<TRIPOS>ATOM
      1 N          -5.2991  -17.0900   23.3740 N.3     1  UNL1       -0.2665
      2 C          -4.6266  -16.3260   24.4759 C.3     1  UNL1        0.0986
      3 C          -5.2521  -15.4728   25.5392 C.2     1  UNL1       -0.0134
      4 C          -6.7046  -15.1729   25.7635 C.2     1  UNL1       -0.0289
      5 C          -7.8903  -15.6521   24.9797 C.3     1  UNL1        0.0315
      6 C          -7.9164  -16.5496   23.7781 C.3     1  UNL1        0.0427
      7 C          -6.7633  -17.1895   23.0635 C.3     1  UNL1        0.0771
      8 C          -9.2754  -16.8463   23.2168 C.ar    1  UNL1       -0.0199
      9 C          -9.6069  -16.4541   21.8074 C.ar    1  UNL1       -0.0033
     10 C         -10.9659  -16.7509   21.2461 C.ar    1  UNL1        0.0119
     11 C         -11.9935  -17.4399   22.0943 C.ar    1  UNL1        0.0682
     12 CL        -13.3525  -17.7367   21.5331 Cl      1  UNL1       -0.0814
     13 C         -11.6620  -17.8321   23.5037 C.ar    1  UNL1        0.0679
     14 CL        -12.6896  -18.5211   24.3518 Cl      1  UNL1       -0.0814
     15 C         -10.3030  -17.5354   24.0649 C.ar    1  UNL1        0.0080
     16 C          -4.3869  -17.8558   22.4622 C.3     1  UNL1        0.1048
     17 C          -4.4466  -19.3541   22.4270 C.3     1  UNL1        0.1595
     18 C          -3.9510  -20.1303   19.9976 C.3     1  UNL1        0.1742
     19 O          -4.8779  -20.0583   21.1747 O.3     1  UNL1       -0.3496
@<TRIPOS>BOND
     1    18    19    1
     2    19    17    1
     3    17    16    1
     4    16     1    1
     5     1     2    1
     6     2     3    1
     7     3     4    2
     8     4     5    1
     9     5     6    1
    10     6     8    1
    11     8     9   ar
    12     9    10   ar
    13    10    11   ar
    14    11    12    1
    15    11    13   ar
    16    13    14    1
    17    13    15   ar
    18     6     7    1
    19     7     1    1
    20    15     8   ar
