@<TRIPOS>MOLECULE
*****
 33 37 0 0 0
SMALL
GASTEIGER

@<TRIPOS>ATOM
      1 C           0.5420    3.0549   18.6795 C.ar    1  UNL1        0.0561
      2 C          -0.2453    3.4632   17.4696 C.ar    1  UNL1        0.0093
      3 C          -1.6388    3.9957   17.6263 C.ar    1  UNL1        0.0553
      4 C          -2.6489    4.4739   16.6258 C.ar    1  UNL1        0.1235
      5 N          -3.8794    4.8935   17.3738 N.ar    1  UNL1       -0.1620
      6 N          -3.6299    4.6747   18.8367 N.ar    1  UNL1       -0.2093
      7 C          -2.2451    4.1198   18.9927 C.ar    1  UNL1        0.1492
      8 N          -1.4578    3.7115   20.2024 N.ar    1  UNL1       -0.2786
      9 C          -2.0641    3.8356   21.5688 C.3     1  UNL1        0.1350
     10 C          -0.0643    3.1791   20.0458 C.ar    1  UNL1        0.2619
     11 O           0.7230    2.7708   21.2556 O.2     1  UNL1       -0.2669
     12 C          -4.5956    4.9607   19.9482 C.ar    1  UNL1        0.1390
     13 C          -5.7189    4.0073   20.2295 C.ar    1  UNL1        0.1599
     14 F          -5.8766    2.7680   19.3992 F       1  UNL1       -0.2025
     15 C          -6.6847    4.2932   21.3412 C.ar    1  UNL1        0.0313
     16 C          -6.5271    5.5324   22.1714 C.ar    1  UNL1        0.0047
     17 C          -5.4037    6.4858   21.8901 C.ar    1  UNL1        0.0313
     18 C          -4.4379    6.1999   20.7785 C.ar    1  UNL1        0.1599
     19 F          -3.3146    7.1533   20.4972 F       1  UNL1       -0.2025
     20 C           2.8729    4.9430   18.6344 C.3     1  UNL1        0.0310
     21 C           3.1011    3.4665   18.5003 C.ar    1  UNL1       -0.0217
     22 C           4.4946    2.9340   18.3437 C.ar    1  UNL1       -0.0041
     23 C           4.7227    1.4575   18.2096 C.ar    1  UNL1        0.0042
     24 C           3.5572    0.5135   18.2321 C.ar    1  UNL1        0.0533
     25 C           2.1637    1.0460   18.3887 C.ar    1  UNL1        0.0043
     26 C           1.9356    2.5225   18.5228 C.ar    1  UNL1        0.0008
     27 C           3.7853   -0.9630   18.0980 C.2     1  UNL1        0.2458
     28 O           4.2939   -1.5289   16.8052 O.2     1  UNL1       -0.2701
     29 N           3.5047   -1.8735   19.2565 N.am    1  UNL1       -0.3025
     30 H           3.1709   -1.5021   20.1050 H       1  UNL1        0.1497
     31 C           3.7329   -3.3500   19.1223 C.3     1  UNL1        0.0720
     32 C           4.6055   -4.4972   18.7073 C.3     1  UNL1        0.0213
     33 C           3.2551   -4.7601   19.3050 C.3     1  UNL1        0.0213
@<TRIPOS>BOND
     1    20    21    1
     2    21    22   ar
     3    22    23   ar
     4    23    24   ar
     5    24    27    1
     6    27    28    2
     7    27    29   am
     8    29    31    1
     9    31    32    1
    10    32    33    1
    11    24    25   ar
    12    25    26   ar
    13    26     1    1
    14     1     2   ar
    15     2     3   ar
    16     3     4   ar
    17     4     5   ar
    18     5     6   ar
    19     6    12    1
    20    12    13   ar
    21    13    14    1
    22    13    15   ar
    23    15    16   ar
    24    16    17   ar
    25    17    18   ar
    26    18    19    1
    27     6     7   ar
    28     7     8   ar
    29     8     9    1
    30     8    10   ar
    31    10    11    2
    32    26    21   ar
    33    10     1   ar
    34    33    31    1
    35     7     3   ar
    36    18    12   ar
    37    29    30    1
@<TRIPOS>MOLECULE
*****
 33 37 0 0 0
SMALL
GASTEIGER

@<TRIPOS>ATOM
      1 C           0.8914    2.7043   20.1592 C.ar    1  UNL1        0.0561
      2 C           0.8891    2.7864   21.6570 C.ar    1  UNL1        0.0093
      3 C          -0.3428    3.2428   22.3811 C.ar    1  UNL1        0.0553
      4 C          -0.6405    3.4228   23.8402 C.ar    1  UNL1        0.1235
      5 N          -2.0540    3.9084   23.9683 N.ar    1  UNL1       -0.1620
      6 N          -2.6297    4.0284   22.5884 N.ar    1  UNL1       -0.2093
      7 C          -1.5721    3.6171   21.6075 C.ar    1  UNL1        0.1492
      8 N          -1.5697    3.5350   20.1097 N.ar    1  UNL1       -0.2786
      9 C          -2.7991    3.9093   19.3360 C.3     1  UNL1        0.1350
     10 C          -0.3379    3.0786   19.3856 C.ar    1  UNL1        0.2619
     11 O          -0.3355    2.9965   17.8878 O.2     1  UNL1       -0.2669
     12 C          -4.0191    4.4805   22.2491 C.ar    1  UNL1        0.1390
     13 C          -5.1914    3.5966   22.5563 C.ar    1  UNL1        0.1599
     14 F          -4.9743    2.2606   23.2029 F       1  UNL1       -0.2025
     15 C          -6.5809    4.0487   22.2170 C.ar    1  UNL1        0.0313
     16 C          -6.7980    5.3845   21.5704 C.ar    1  UNL1        0.0047
     17 C          -5.6257    6.2685   21.2632 C.ar    1  UNL1        0.0313
     18 C          -4.2363    5.8165   21.6025 C.ar    1  UNL1        0.1599
     19 F          -3.0640    6.7004   21.2952 F       1  UNL1       -0.2025
     20 C           2.8249    4.7224   19.0689 C.3     1  UNL1        0.0310
     21 C           3.0900    3.2569   18.8899 C.ar    1  UNL1       -0.0217
     22 C           4.3218    2.8005   18.1658 C.ar    1  UNL1       -0.0041
     23 C           4.5869    1.3350   17.9869 C.ar    1  UNL1        0.0042
     24 C           3.6202    0.3259   18.5321 C.ar    1  UNL1        0.0533
     25 C           2.3884    0.7823   19.2562 C.ar    1  UNL1        0.0043
     26 C           2.1233    2.2478   19.4351 C.ar    1  UNL1        0.0008
     27 C           3.8853   -1.1396   18.3531 C.2     1  UNL1        0.2458
     28 O           4.5227   -1.6377   17.0899 O.2     1  UNL1       -0.2701
     29 N           3.5131   -2.1070   19.4374 N.am    1  UNL1       -0.3025
     30 H           3.0947   -1.7801   20.2665 H       1  UNL1        0.1497
     31 C           3.7782   -3.5725   19.2584 C.3     1  UNL1        0.0720
     32 C           4.6605   -4.6829   18.7700 C.3     1  UNL1        0.0213
     33 C           3.3549   -5.0005   19.4368 C.3     1  UNL1        0.0213
@<TRIPOS>BOND
     1    20    21    1
     2    21    22   ar
     3    22    23   ar
     4    23    24   ar
     5    24    27    1
     6    27    28    2
     7    27    29   am
     8    29    31    1
     9    31    32    1
    10    32    33    1
    11    24    25   ar
    12    25    26   ar
    13    26     1    1
    14     1     2   ar
    15     2     3   ar
    16     3     4   ar
    17     4     5   ar
    18     5     6   ar
    19     6    12    1
    20    12    13   ar
    21    13    14    1
    22    13    15   ar
    23    15    16   ar
    24    16    17   ar
    25    17    18   ar
    26    18    19    1
    27     6     7   ar
    28     7     8   ar
    29     8     9    1
    30     8    10   ar
    31    10    11    2
    32    26    21   ar
    33    10     1   ar
    34    33    31    1
    35     7     3   ar
    36    18    12   ar
    37    29    30    1
@<TRIPOS>MOLECULE
*****
 33 37 0 0 0
SMALL
GASTEIGER

@<TRIPOS>ATOM
      1 C           0.6661    2.8545   19.9445 C.ar    1  UNL1        0.0561
      2 C          -0.5289    3.1926   19.1031 C.ar    1  UNL1        0.0093
      3 C          -1.8023    3.6428   19.7556 C.ar    1  UNL1        0.0553
      4 C          -3.1334    4.0410   19.1903 C.ar    1  UNL1        0.1235
      5 N          -4.0345    4.3992   20.3347 N.ar    1  UNL1       -0.1620
      6 N          -3.2604    4.2223   21.6073 N.ar    1  UNL1       -0.2093
      7 C          -1.8808    3.7548   21.2494 C.ar    1  UNL1        0.1492
      8 N          -0.6858    3.4166   22.0906 N.ar    1  UNL1       -0.2786
      9 C          -0.7643    3.5286   23.5844 C.3     1  UNL1        0.1350
     10 C           0.5876    2.9665   21.4381 C.ar    1  UNL1        0.2619
     11 O           1.7825    2.6283   22.2795 O.2     1  UNL1       -0.2669
     12 C          -3.7755    4.4694   22.9942 C.ar    1  UNL1        0.1390
     13 C          -4.6360    3.4426   23.6688 C.ar    1  UNL1        0.1599
     14 F          -4.9814    2.1685   22.9564 F       1  UNL1       -0.2025
     15 C          -5.1511    3.6897   25.0558 C.ar    1  UNL1        0.0313
     16 C          -4.8057    4.9637   25.7681 C.ar    1  UNL1        0.0047
     17 C          -3.9451    5.9906   25.0935 C.ar    1  UNL1        0.0313
     18 C          -3.4300    5.7435   23.7066 C.ar    1  UNL1        0.1599
     19 F          -2.5695    6.7704   23.0321 F       1  UNL1       -0.2025
     20 C           2.6627    4.8818   18.9942 C.3     1  UNL1        0.0310
     21 C           2.9379    3.4179   18.8168 C.ar    1  UNL1       -0.0217
     22 C           4.2113    2.9678   18.1643 C.ar    1  UNL1       -0.0041
     23 C           4.4864    1.5039   17.9870 C.ar    1  UNL1        0.0042
     24 C           3.4881    0.4902   18.4622 C.ar    1  UNL1        0.0533
     25 C           2.2147    0.9404   19.1147 C.ar    1  UNL1        0.0043
     26 C           1.9396    2.4043   19.2920 C.ar    1  UNL1        0.0008
     27 C           3.7632   -0.9737   18.2849 C.2     1  UNL1        0.2458
     28 O           4.3313   -1.4787   16.9917 O.2     1  UNL1       -0.2701
     29 N           3.4702   -1.9324   19.4007 N.am    1  UNL1       -0.3025
     30 H           3.0974   -1.6009   20.2494 H       1  UNL1        0.1497
     31 C           3.7453   -3.3963   19.2233 C.3     1  UNL1        0.0720
     32 C           4.6071   -4.5004   18.6864 C.3     1  UNL1        0.0213
     33 C           3.3600   -4.8276   19.4530 C.3     1  UNL1        0.0213
@<TRIPOS>BOND
     1    20    21    1
     2    21    22   ar
     3    22    23   ar
     4    23    24   ar
     5    24    27    1
     6    27    28    2
     7    27    29   am
     8    29    31    1
     9    31    32    1
    10    32    33    1
    11    24    25   ar
    12    25    26   ar
    13    26     1    1
    14     1     2   ar
    15     2     3   ar
    16     3     4   ar
    17     4     5   ar
    18     5     6   ar
    19     6    12    1
    20    12    13   ar
    21    13    14    1
    22    13    15   ar
    23    15    16   ar
    24    16    17   ar
    25    17    18   ar
    26    18    19    1
    27     6     7   ar
    28     7     8   ar
    29     8     9    1
    30     8    10   ar
    31    10    11    2
    32    26    21   ar
    33    10     1   ar
    34    33    31    1
    35     7     3   ar
    36    18    12   ar
    37    29    30    1
@<TRIPOS>MOLECULE
*****
 33 37 0 0 0
SMALL
GASTEIGER

@<TRIPOS>ATOM
      1 C           1.5510    1.2224   25.6963 C.ar    1  UNL1        0.0561
      2 C           0.2409    0.7944   26.2884 C.ar    1  UNL1        0.0093
      3 C           0.0253    0.8765   27.7706 C.ar    1  UNL1        0.0553
      4 C          -1.1507    0.5290   28.6345 C.ar    1  UNL1        0.1235
      5 N          -0.7830    0.8242   30.0584 N.ar    1  UNL1       -0.1620
      6 N           0.6201    1.3542   30.0746 N.ar    1  UNL1       -0.2093
      7 C           1.1197    1.3865   28.6606 C.ar    1  UNL1        0.1492
      8 N           2.4297    1.8145   28.0684 N.ar    1  UNL1       -0.2786
      9 C           3.5242    2.3245   28.9584 C.3     1  UNL1        0.1350
     10 C           2.6453    1.7324   26.5863 C.ar    1  UNL1        0.2619
     11 O           3.9555    2.1603   25.9942 O.2     1  UNL1       -0.2669
     12 C           1.3887    1.7776   31.2911 C.ar    1  UNL1        0.1390
     13 C           1.1465    3.1272   31.8992 C.ar    1  UNL1        0.1599
     14 F           0.1356    4.0534   31.2908 F       1  UNL1       -0.2025
     15 C           1.9151    3.5506   33.1159 C.ar    1  UNL1        0.0313
     16 C           2.9259    2.6244   33.7242 C.ar    1  UNL1        0.0047
     17 C           3.1682    1.2747   33.1160 C.ar    1  UNL1        0.0313
     18 C           2.3996    0.8513   31.8995 C.ar    1  UNL1        0.1599
     19 F           2.6419   -0.4983   31.2914 F       1  UNL1       -0.2025
     20 C           0.7925    3.5332   23.9400 C.3     1  UNL1        0.0310
     21 C           1.3874    2.2957   23.3359 C.ar    1  UNL1       -0.0217
     22 C           1.6030    2.2136   21.8538 C.ar    1  UNL1       -0.0041
     23 C           2.1979    0.9761   21.2498 C.ar    1  UNL1        0.0042
     24 C           2.5771   -0.1793   22.1280 C.ar    1  UNL1        0.0533
     25 C           2.3615   -0.0972   23.6102 C.ar    1  UNL1        0.0043
     26 C           1.7666    1.1403   24.2141 C.ar    1  UNL1        0.0008
     27 C           3.1720   -1.4168   21.5241 C.2     1  UNL1        0.2458
     28 O           3.9943   -2.3434   22.3699 O.2     1  UNL1       -0.2701
     29 N           2.9446   -1.7277   20.0744 N.am    1  UNL1       -0.3025
     30 H           2.4049   -1.1196   19.5193 H       1  UNL1        0.1497
     31 C           3.5395   -2.9653   19.4705 C.3     1  UNL1        0.0720
     32 C           4.6471   -3.6395   18.7164 C.3     1  UNL1        0.0213
     33 C           3.4622   -4.4346   19.1788 C.3     1  UNL1        0.0213
@<TRIPOS>BOND
     1    20    21    1
     2    21    22   ar
     3    22    23   ar
     4    23    24   ar
     5    24    27    1
     6    27    28    2
     7    27    29   am
     8    29    31    1
     9    31    32    1
    10    32    33    1
    11    24    25   ar
    12    25    26   ar
    13    26     1    1
    14     1     2   ar
    15     2     3   ar
    16     3     4   ar
    17     4     5   ar
    18     5     6   ar
    19     6    12    1
    20    12    13   ar
    21    13    14    1
    22    13    15   ar
    23    15    16   ar
    24    16    17   ar
    25    17    18   ar
    26    18    19    1
    27     6     7   ar
    28     7     8   ar
    29     8     9    1
    30     8    10   ar
    31    10    11    2
    32    26    21   ar
    33    10     1   ar
    34    33    31    1
    35     7     3   ar
    36    18    12   ar
    37    29    30    1
@<TRIPOS>MOLECULE
*****
 33 37 0 0 0
SMALL
GASTEIGER

@<TRIPOS>ATOM
      1 C           6.2704   -3.2942   22.9962 C.ar    1  UNL1        0.0561
      2 C           5.6250   -4.1698   21.9633 C.ar    1  UNL1        0.0093
      3 C           4.7279   -3.5667   20.9234 C.ar    1  UNL1        0.0553
      4 C           3.9587   -4.1732   19.7875 C.ar    1  UNL1        0.1235
      5 N           3.2316   -3.0694   19.0784 N.ar    1  UNL1       -0.1620
      6 N           3.5515   -1.7806   19.7760 N.ar    1  UNL1       -0.2093
      7 C           4.4763   -2.0879   20.9163 C.ar    1  UNL1        0.1492
      8 N           5.1217   -1.2124   21.9492 N.ar    1  UNL1       -0.2786
      9 C           4.8701    0.2664   21.9421 C.3     1  UNL1        0.1350
     10 C           6.0188   -1.8155   22.9891 C.ar    1  UNL1        0.2619
     11 O           6.6642   -0.9399   24.0219 O.2     1  UNL1       -0.2669
     12 C           3.0369   -0.4229   19.3995 C.ar    1  UNL1        0.1390
     13 C           3.9443    0.5623   18.7241 C.ar    1  UNL1        0.1599
     14 F           5.3663    0.1897   18.4253 F       1  UNL1       -0.2025
     15 C           3.4298    1.9201   18.3475 C.ar    1  UNL1        0.0313
     16 C           2.0079    2.2926   18.6463 C.ar    1  UNL1        0.0047
     17 C           1.1005    1.3074   19.3217 C.ar    1  UNL1        0.0313
     18 C           1.6150   -0.0503   19.6983 C.ar    1  UNL1        0.1599
     19 F           0.7076   -1.0354   20.3737 F       1  UNL1       -0.2025
     20 C           9.0869   -4.0499   22.2917 C.3     1  UNL1        0.0310
     21 C           8.5758   -4.2752   23.6839 C.ar    1  UNL1       -0.0217
     22 C           9.4729   -4.8784   24.7238 C.ar    1  UNL1       -0.0041
     23 C           8.9618   -5.1036   26.1160 C.ar    1  UNL1        0.0042
     24 C           7.5535   -4.7258   26.4682 C.ar    1  UNL1        0.0533
     25 C           6.6564   -4.1226   25.4282 C.ar    1  UNL1        0.0043
     26 C           7.1676   -3.8974   24.0361 C.ar    1  UNL1        0.0008
     27 C           7.0424   -4.9510   27.8603 C.2     1  UNL1        0.2458
     28 O           5.7188   -5.6240   28.0735 O.2     1  UNL1       -0.2701
     29 N           7.8547   -4.5033   29.0391 N.am    1  UNL1       -0.3025
     30 H           8.7234   -4.0616   28.8992 H       1  UNL1        0.1497
     31 C           7.3435   -4.7286   30.4312 C.3     1  UNL1        0.0720
     32 C           6.9113   -4.1842   31.7604 C.3     1  UNL1        0.0213
     33 C           6.8901   -5.6635   31.5131 C.3     1  UNL1        0.0213
@<TRIPOS>BOND
     1    20    21    1
     2    21    22   ar
     3    22    23   ar
     4    23    24   ar
     5    24    27    1
     6    27    28    2
     7    27    29   am
     8    29    31    1
     9    31    32    1
    10    32    33    1
    11    24    25   ar
    12    25    26   ar
    13    26     1    1
    14     1     2   ar
    15     2     3   ar
    16     3     4   ar
    17     4     5   ar
    18     5     6   ar
    19     6    12    1
    20    12    13   ar
    21    13    14    1
    22    13    15   ar
    23    15    16   ar
    24    16    17   ar
    25    17    18   ar
    26    18    19    1
    27     6     7   ar
    28     7     8   ar
    29     8     9    1
    30     8    10   ar
    31    10    11    2
    32    26    21   ar
    33    10     1   ar
    34    33    31    1
    35     7     3   ar
    36    18    12   ar
    37    29    30    1
@<TRIPOS>MOLECULE
*****
 33 37 0 0 0
SMALL
GASTEIGER

@<TRIPOS>ATOM
      1 C           6.7297   -0.0786   33.2989 C.ar    1  UNL1        0.0561
      2 C           7.9140   -0.9533   33.5863 C.ar    1  UNL1        0.0093
      3 C           8.3253   -2.0064   32.6006 C.ar    1  UNL1        0.0553
      4 C           9.4403   -3.0098   32.6105 C.ar    1  UNL1        0.1235
      5 N           9.3565   -3.8084   31.3436 N.ar    1  UNL1       -0.1620
      6 N           8.1898   -3.2985   30.5505 N.ar    1  UNL1       -0.2093
      7 C           7.5525   -2.1848   31.3274 C.ar    1  UNL1        0.1492
      8 N           6.3683   -1.3102   31.0400 N.ar    1  UNL1       -0.2786
      9 C           5.5954   -1.4886   29.7669 C.3     1  UNL1        0.1350
     10 C           5.9569   -0.2571   32.0258 C.ar    1  UNL1        0.2619
     11 O           4.7727    0.6176   31.7384 O.2     1  UNL1       -0.2669
     12 C           7.7395   -3.8122   29.2151 C.ar    1  UNL1        0.1390
     13 C           8.1577   -3.1056   27.9599 C.ar    1  UNL1        0.1599
     14 F           9.0262   -1.8852   28.0400 F       1  UNL1       -0.2025
     15 C           7.7074   -3.6192   26.6244 C.ar    1  UNL1        0.0313
     16 C           6.8389   -4.8395   26.5442 C.ar    1  UNL1        0.0047
     17 C           6.4206   -5.5462   27.7996 C.ar    1  UNL1        0.0313
     18 C           6.8709   -5.0326   29.1350 C.ar    1  UNL1        0.1599
     19 F           6.4527   -5.7392   30.3902 F       1  UNL1       -0.2025
     20 C           8.4298    2.3633   33.6820 C.3     1  UNL1        0.0310
     21 C           7.1684    2.1955   34.4762 C.ar    1  UNL1       -0.0217
     22 C           6.7570    3.2486   35.4620 C.ar    1  UNL1       -0.0041
     23 C           5.4956    3.0808   36.2562 C.ar    1  UNL1        0.0042
     24 C           4.6456    1.8598   36.0646 C.ar    1  UNL1        0.0533
     25 C           5.0570    0.8067   35.0788 C.ar    1  UNL1        0.0043
     26 C           6.3184    0.9746   34.2847 C.ar    1  UNL1        0.0008
     27 C           3.3842    1.6920   36.8588 C.2     1  UNL1        0.2458
     28 O           2.1149    2.3446   36.3971 O.2     1  UNL1       -0.2701
     29 N           3.3921    0.8717   38.1146 N.am    1  UNL1       -0.3025
     30 H           4.2252    0.4434   38.4175 H       1  UNL1        0.1497
     31 C           2.1306    0.7039   38.9087 C.3     1  UNL1        0.0720
     32 C           1.1455   -0.1835   39.6102 C.3     1  UNL1        0.0213
     33 C           0.9309    1.3008   39.5826 C.3     1  UNL1        0.0213
@<TRIPOS>BOND
     1    20    21    1
     2    21    22   ar
     3    22    23   ar
     4    23    24   ar
     5    24    27    1
     6    27    28    2
     7    27    29   am
     8    29    31    1
     9    31    32    1
    10    32    33    1
    11    24    25   ar
    12    25    26   ar
    13    26     1    1
    14     1     2   ar
    15     2     3   ar
    16     3     4   ar
    17     4     5   ar
    18     5     6   ar
    19     6    12    1
    20    12    13   ar
    21    13    14    1
    22    13    15   ar
    23    15    16   ar
    24    16    17   ar
    25    17    18   ar
    26    18    19    1
    27     6     7   ar
    28     7     8   ar
    29     8     9    1
    30     8    10   ar
    31    10    11    2
    32    26    21   ar
    33    10     1   ar
    34    33    31    1
    35     7     3   ar
    36    18    12   ar
    37    29    30    1
@<TRIPOS>MOLECULE
*****
 33 37 0 0 0
SMALL
GASTEIGER

@<TRIPOS>ATOM
      1 C           2.4123    1.8493   19.5552 C.ar    1  UNL1        0.0561
      2 C           2.4389    1.1204   18.2445 C.ar    1  UNL1        0.0093
      3 C           3.4323    0.0195   18.0186 C.ar    1  UNL1        0.0553
      4 C           3.6936   -0.8703   16.8396 C.ar    1  UNL1        0.1235
      5 N           4.8219   -1.7922   17.1959 N.ar    1  UNL1       -0.1620
      6 N           5.2580   -1.4722   18.5950 N.ar    1  UNL1       -0.2093
      7 C           4.3991   -0.3525   19.1035 C.ar    1  UNL1        0.1492
      8 N           4.3725    0.3764   20.4142 N.ar    1  UNL1       -0.2786
      9 C           5.3393    0.0044   21.4990 C.3     1  UNL1        0.1350
     10 C           3.3790    1.4773   20.6400 C.ar    1  UNL1        0.2619
     11 O           3.3524    2.2062   21.9508 O.2     1  UNL1       -0.2669
     12 C           6.3595   -2.1525   19.3525 C.ar    1  UNL1        0.1390
     13 C           6.0507   -3.3300   20.2290 C.ar    1  UNL1        0.1599
     14 F           4.6405   -3.8272   20.3478 F       1  UNL1       -0.2025
     15 C           7.1522   -4.0104   20.9866 C.ar    1  UNL1        0.0313
     16 C           8.5623   -3.5132   20.8677 C.ar    1  UNL1        0.0047
     17 C           8.8711   -2.3357   19.9912 C.ar    1  UNL1        0.0313
     18 C           7.7697   -1.6553   19.2337 C.ar    1  UNL1        0.1599
     19 F           8.0784   -0.4778   18.3572 F       1  UNL1       -0.2025
     20 C           2.9956    4.6218   18.5689 C.3     1  UNL1        0.0310
     21 C           1.7105    4.3366   19.2879 C.ar    1  UNL1       -0.0217
     22 C           0.7170    5.4375   19.5138 C.ar    1  UNL1       -0.0041
     23 C          -0.5681    5.1522   20.2329 C.ar    1  UNL1        0.0042
     24 C          -0.8598    3.7659   20.7261 C.ar    1  UNL1        0.0533
     25 C           0.1336    2.6650   20.5002 C.ar    1  UNL1        0.0043
     26 C           1.4188    2.9503   19.7811 C.ar    1  UNL1        0.0008
     27 C          -2.1449    3.4806   21.4451 C.2     1  UNL1        0.2458
     28 O          -3.2491    2.7457   20.7445 O.2     1  UNL1       -0.2701
     29 N          -2.3259    3.9301   22.8647 N.am    1  UNL1       -0.3025
     30 H          -1.6011    4.4123   23.3245 H       1  UNL1        0.1497
     31 C          -3.6110    3.6447   23.5837 C.3     1  UNL1        0.0720
     32 C          -5.0345    3.1722   23.5620 C.3     1  UNL1        0.0213
     33 C          -4.4135    3.6230   24.8508 C.3     1  UNL1        0.0213
@<TRIPOS>BOND
     1    20    21    1
     2    21    22   ar
     3    22    23   ar
     4    23    24   ar
     5    24    27    1
     6    27    28    2
     7    27    29   am
     8    29    31    1
     9    31    32    1
    10    32    33    1
    11    24    25   ar
    12    25    26   ar
    13    26     1    1
    14     1     2   ar
    15     2     3   ar
    16     3     4   ar
    17     4     5   ar
    18     5     6   ar
    19     6    12    1
    20    12    13   ar
    21    13    14    1
    22    13    15   ar
    23    15    16   ar
    24    16    17   ar
    25    17    18   ar
    26    18    19    1
    27     6     7   ar
    28     7     8   ar
    29     8     9    1
    30     8    10   ar
    31    10    11    2
    32    26    21   ar
    33    10     1   ar
    34    33    31    1
    35     7     3   ar
    36    18    12   ar
    37    29    30    1
@<TRIPOS>MOLECULE
*****
 33 37 0 0 0
SMALL
GASTEIGER

@<TRIPOS>ATOM
      1 C           0.5238    1.8222   25.4661 C.ar    1  UNL1        0.0561
      2 C          -0.5704    1.1381   26.2309 C.ar    1  UNL1        0.0093
      3 C          -0.4942    1.0433   27.7259 C.ar    1  UNL1        0.0553
      4 C          -1.4148    0.4335   28.7411 C.ar    1  UNL1        0.1235
      5 N          -0.8135    0.6458   30.0988 N.ar    1  UNL1       -0.1620
      6 N           0.4788    1.3868   29.9227 N.ar    1  UNL1       -0.2093
      7 C           0.6761    1.6324   28.4562 C.ar    1  UNL1        0.1492
      8 N           1.7703    2.3164   27.6913 N.ar    1  UNL1       -0.2786
      9 C           2.9406    2.9056   28.4216 C.3     1  UNL1        0.1350
     10 C           1.6941    2.4113   26.1963 C.ar    1  UNL1        0.2619
     11 O           2.7883    3.0954   25.4315 O.2     1  UNL1       -0.2669
     12 C           1.4102    1.8081   31.0204 C.ar    1  UNL1        0.1390
     13 C           2.4376    0.8478   31.5421 C.ar    1  UNL1        0.1599
     14 F           2.5336   -0.5339   30.9661 F       1  UNL1       -0.2025
     15 C           3.3691    1.2691   32.6399 C.ar    1  UNL1        0.0313
     16 C           3.2730    2.6507   33.2158 C.ar    1  UNL1        0.0047
     17 C           2.2456    3.6111   32.6941 C.ar    1  UNL1        0.0313
     18 C           1.3142    3.1898   31.5964 C.ar    1  UNL1        0.1599
     19 F           0.2868    4.1502   31.0747 F       1  UNL1       -0.2025
     20 C          -0.9802    4.0774   24.1809 C.3     1  UNL1        0.0310
     21 C          -0.3044    3.0447   23.3284 C.ar    1  UNL1       -0.0217
     22 C          -0.3805    3.1395   21.8333 C.ar    1  UNL1       -0.0041
     23 C           0.2953    2.1067   20.9809 C.ar    1  UNL1        0.0042
     24 C           1.0473    0.9791   21.6235 C.ar    1  UNL1        0.0533
     25 C           1.1235    0.8843   23.1185 C.ar    1  UNL1        0.0043
     26 C           0.4476    1.9170   23.9710 C.ar    1  UNL1        0.0008
     27 C           1.7232   -0.0536   20.7710 C.2     1  UNL1        0.2458
     28 O           1.3190   -0.2232   19.3364 O.2     1  UNL1       -0.2701
     29 N           2.8031   -0.9167   21.3531 N.am    1  UNL1       -0.3025
     30 H           3.0683   -0.8053   22.2947 H       1  UNL1        0.1497
     31 C           3.4789   -1.9495   20.5006 C.3     1  UNL1        0.0720
     32 C           4.6981   -2.7507   20.1520 C.3     1  UNL1        0.0213
     33 C           3.4301   -2.9369   19.3726 C.3     1  UNL1        0.0213
@<TRIPOS>BOND
     1    20    21    1
     2    21    22   ar
     3    22    23   ar
     4    23    24   ar
     5    24    27    1
     6    27    28    2
     7    27    29   am
     8    29    31    1
     9    31    32    1
    10    32    33    1
    11    24    25   ar
    12    25    26   ar
    13    26     1    1
    14     1     2   ar
    15     2     3   ar
    16     3     4   ar
    17     4     5   ar
    18     5     6   ar
    19     6    12    1
    20    12    13   ar
    21    13    14    1
    22    13    15   ar
    23    15    16   ar
    24    16    17   ar
    25    17    18   ar
    26    18    19    1
    27     6     7   ar
    28     7     8   ar
    29     8     9    1
    30     8    10   ar
    31    10    11    2
    32    26    21   ar
    33    10     1   ar
    34    33    31    1
    35     7     3   ar
    36    18    12   ar
    37    29    30    1
@<TRIPOS>MOLECULE
*****
 33 37 0 0 0
SMALL
GASTEIGER

@<TRIPOS>ATOM
      1 C           2.9346    0.2720   20.2903 C.ar    1  UNL1        0.0561
      2 C           2.6687   -1.0496   19.6323 C.ar    1  UNL1        0.0093
      3 C           3.5496   -2.2265   19.9305 C.ar    1  UNL1        0.0553
      4 C           3.5330   -3.6430   19.4374 C.ar    1  UNL1        0.1235
      5 N           4.6694   -4.3739   20.0889 N.ar    1  UNL1       -0.1620
      6 N           5.3883   -3.4090   20.9846 N.ar    1  UNL1       -0.2093
      7 C           4.6962   -2.0818   20.8867 C.ar    1  UNL1        0.1492
      8 N           4.9620   -0.7603   21.5446 N.ar    1  UNL1       -0.2786
      9 C           6.1087   -0.6157   22.5008 C.3     1  UNL1        0.1350
     10 C           4.0811    0.4166   21.2464 C.ar    1  UNL1        0.2619
     11 O           4.3470    1.7381   21.9045 O.2     1  UNL1       -0.2669
     12 C           6.5886   -3.7173   21.8298 C.ar    1  UNL1        0.1390
     13 C           7.9510   -3.7747   21.2050 C.ar    1  UNL1        0.1599
     14 F           8.1132   -3.5237   19.7350 F       1  UNL1       -0.2025
     15 C           9.1514   -4.0829   22.0501 C.ar    1  UNL1        0.0313
     16 C           8.9892   -4.3338   23.5200 C.ar    1  UNL1        0.0047
     17 C           7.6266   -4.2765   24.1448 C.ar    1  UNL1        0.0313
     18 C           6.4264   -3.9682   23.2997 C.ar    1  UNL1        0.1599
     19 F           5.0639   -3.9109   23.9245 F       1  UNL1       -0.2025
     20 C           3.7268    2.2390   18.1682 C.3     1  UNL1        0.0310
     21 C           2.4497    2.4325   18.9310 C.ar    1  UNL1       -0.0217
     22 C           1.5689    3.6094   18.6329 C.ar    1  UNL1       -0.0041
     23 C           0.2919    3.8028   19.3957 C.ar    1  UNL1        0.0042
     24 C          -0.1042    2.8192   20.4567 C.ar    1  UNL1        0.0533
     25 C           0.7766    1.6423   20.7549 C.ar    1  UNL1        0.0043
     26 C           2.0536    1.4490   19.9921 C.ar    1  UNL1        0.0008
     27 C          -1.3812    3.0126   21.2195 C.2     1  UNL1        0.2458
     28 O          -1.3444    3.2069   22.7065 O.2     1  UNL1       -0.2701
     29 N          -2.6949    3.0118   20.4955 N.am    1  UNL1       -0.3025
     30 H          -2.7190    2.8843   19.5196 H       1  UNL1        0.1497
     31 C          -3.9719    3.2052   21.2584 C.3     1  UNL1        0.0720
     32 C          -5.4218    3.5882   21.2886 C.3     1  UNL1        0.0213
     33 C          -4.7335    3.1571   22.5497 C.3     1  UNL1        0.0213
@<TRIPOS>BOND
     1    20    21    1
     2    21    22   ar
     3    22    23   ar
     4    23    24   ar
     5    24    27    1
     6    27    28    2
     7    27    29   am
     8    29    31    1
     9    31    32    1
    10    32    33    1
    11    24    25   ar
    12    25    26   ar
    13    26     1    1
    14     1     2   ar
    15     2     3   ar
    16     3     4   ar
    17     4     5   ar
    18     5     6   ar
    19     6    12    1
    20    12    13   ar
    21    13    14    1
    22    13    15   ar
    23    15    16   ar
    24    16    17   ar
    25    17    18   ar
    26    18    19    1
    27     6     7   ar
    28     7     8   ar
    29     8     9    1
    30     8    10   ar
    31    10    11    2
    32    26    21   ar
    33    10     1   ar
    34    33    31    1
    35     7     3   ar
    36    18    12   ar
    37    29    30    1
