@<TRIPOS>MOLECULE
*****
 31 35 0 0 0
SMALL
GASTEIGER

@<TRIPOS>ATOM
      1 C           6.4294   -3.9896   22.9358 C.3     1  UNL1        0.0894
      2 C           7.5039   -3.8555   21.8979 C.3     1  UNL1        0.0399
      3 C           7.1357   -3.6135   20.4641 C.3     1  UNL1        0.0740
      4 N           5.6929   -3.5055   20.0681 N.3     1  UNL1       -0.2725
      5 C           4.6184   -3.6397   21.1060 C.3     1  UNL1        0.0740
      6 C           4.9865   -3.8817   22.5398 C.3     1  UNL1        0.0399
      7 C           5.8597   -1.9646   25.4306 C.3     1  UNL1        0.0718
      8 C           6.5357   -3.3009   25.5164 C.ar    1  UNL1        0.1207
      9 N           7.0685   -3.9410   26.7639 N.ar    1  UNL1       -0.2309
     10 C           7.6597   -5.2674   26.3882 C.ar    1  UNL1        0.0983
     11 C           8.3288   -6.3348   27.2023 C.ar    1  UNL1        0.0206
     12 C           8.8305   -7.5819   26.5366 C.ar    1  UNL1        0.0016
     13 C           8.6630   -7.7615   25.0569 C.ar    1  UNL1        0.0016
     14 C           7.9939   -6.6941   24.2428 C.ar    1  UNL1        0.0188
     15 C           7.4922   -5.4471   24.9084 C.ar    1  UNL1        0.0785
     16 N           6.7975   -4.2317   24.3696 N.ar    1  UNL1       -0.3167
     17 C           5.3248   -3.2635   18.6343 C.3     1  UNL1        0.0728
     18 C           4.0945   -2.4736   18.2989 C.3     1  UNL1        0.0261
     19 C           4.0719   -0.9903   18.5215 C.3     1  UNL1        0.0459
     20 C           5.3151   -0.1801   18.3030 C.ar    1  UNL1       -0.0184
     21 C           6.1180    0.2935   19.4783 C.ar    1  UNL1       -0.0040
     22 C           7.3613    1.1037   19.2598 C.ar    1  UNL1       -0.0003
     23 C           7.8017    1.4404   17.8660 C.ar    1  UNL1       -0.0000
     24 C           6.9989    0.9669   16.6907 C.ar    1  UNL1       -0.0003
     25 C           5.7556    0.1566   16.9092 C.ar    1  UNL1       -0.0040
     26 C           2.8059   -0.3174   18.9626 C.ar    1  UNL1       -0.0184
     27 C           2.0016   -0.8968   20.0883 C.ar    1  UNL1       -0.0040
     28 C           0.7356   -0.2240   20.5294 C.ar    1  UNL1       -0.0003
     29 C           0.2741    1.0283   19.8449 C.ar    1  UNL1       -0.0000
     30 C           1.0784    1.6078   18.7191 C.ar    1  UNL1       -0.0003
     31 C           2.3444    0.9349   18.2780 C.ar    1  UNL1       -0.0040
@<TRIPOS>BOND
     1     7     8    1
     2     8     9   ar
     3     9    10   ar
     4    10    11   ar
     5    11    12   ar
     6    12    13   ar
     7    13    14   ar
     8    14    15   ar
     9    15    16   ar
    10    16     1    1
    11     1     2    1
    12     2     3    1
    13     3     4    1
    14     4    17    1
    15    17    18    1
    16    18    19    1
    17    19    20    1
    18    20    21   ar
    19    21    22   ar
    20    22    23   ar
    21    23    24   ar
    22    24    25   ar
    23    19    26    1
    24    26    27   ar
    25    27    28   ar
    26    28    29   ar
    27    29    30   ar
    28    30    31   ar
    29     4     5    1
    30     5     6    1
    31    16     8   ar
    32     6     1    1
    33    15    10   ar
    34    25    20   ar
    35    31    26   ar
@<TRIPOS>MOLECULE
*****
 31 35 0 0 0
SMALL
GASTEIGER

@<TRIPOS>ATOM
      1 C           6.4514   -3.9793   22.9261 C.3     1  UNL1        0.0894
      2 C           5.0181   -3.8734   22.4968 C.3     1  UNL1        0.0399
      3 C           4.6831   -3.6245   21.0561 C.3     1  UNL1        0.0740
      4 N           5.7814   -3.4815   20.0445 N.3     1  UNL1       -0.2725
      5 C           7.2147   -3.5874   20.4737 C.3     1  UNL1        0.0740
      6 C           7.5498   -3.8363   21.9144 C.3     1  UNL1        0.0399
      7 C           5.8205   -1.9681   25.4174 C.3     1  UNL1        0.0718
      8 C           6.4965   -3.3038   25.5119 C.ar    1  UNL1        0.1207
      9 N           7.0012   -3.9496   26.7682 N.ar    1  UNL1       -0.2309
     10 C           7.6031   -5.2732   26.3995 C.ar    1  UNL1        0.0983
     11 C           8.2549   -6.3438   27.2235 C.ar    1  UNL1        0.0206
     12 C           8.7739   -7.5866   26.5633 C.ar    1  UNL1        0.0016
     13 C           8.6412   -7.7588   25.0791 C.ar    1  UNL1        0.0016
     14 C           7.9895   -6.6882   24.2552 C.ar    1  UNL1        0.0188
     15 C           7.4704   -5.4454   24.9154 C.ar    1  UNL1        0.0785
     16 N           6.7865   -4.2283   24.3668 N.ar    1  UNL1       -0.3167
     17 C           5.4463   -3.2325   18.6037 C.3     1  UNL1        0.0728
     18 C           4.2075   -2.4674   18.2432 C.3     1  UNL1        0.0261
     19 C           4.1476   -0.9862   18.4725 C.3     1  UNL1        0.0459
     20 C           2.8719   -0.3507   18.9400 C.ar    1  UNL1       -0.0184
     21 C           2.0918   -0.9712   20.0611 C.ar    1  UNL1       -0.0040
     22 C           0.8160   -0.3357   20.5287 C.ar    1  UNL1       -0.0003
     23 C           0.3204    0.9203   19.8752 C.ar    1  UNL1       -0.0000
     24 C           1.1004    1.5407   18.7542 C.ar    1  UNL1       -0.0003
     25 C           2.3761    0.9052   18.2867 C.ar    1  UNL1       -0.0040
     26 C           5.3634   -0.1406   18.2342 C.ar    1  UNL1       -0.0184
     27 C           5.7700    0.2102   16.8336 C.ar    1  UNL1       -0.0040
     28 C           6.9858    1.0558   16.5952 C.ar    1  UNL1       -0.0003
     29 C           7.7949    1.5506   17.7573 C.ar    1  UNL1       -0.0000
     30 C           7.3882    1.1998   19.1579 C.ar    1  UNL1       -0.0003
     31 C           6.1724    0.3542   19.3963 C.ar    1  UNL1       -0.0040
@<TRIPOS>BOND
     1     7     8    1
     2     8     9   ar
     3     9    10   ar
     4    10    11   ar
     5    11    12   ar
     6    12    13   ar
     7    13    14   ar
     8    14    15   ar
     9    15    16   ar
    10    16     1    1
    11     1     2    1
    12     2     3    1
    13     3     4    1
    14     4    17    1
    15    17    18    1
    16    18    19    1
    17    19    20    1
    18    20    21   ar
    19    21    22   ar
    20    22    23   ar
    21    23    24   ar
    22    24    25   ar
    23    19    26    1
    24    26    27   ar
    25    27    28   ar
    26    28    29   ar
    27    29    30   ar
    28    30    31   ar
    29     4     5    1
    30     5     6    1
    31    16     8   ar
    32     6     1    1
    33    15    10   ar
    34    25    20   ar
    35    31    26   ar
@<TRIPOS>MOLECULE
*****
 31 35 0 0 0
SMALL
GASTEIGER

@<TRIPOS>ATOM
      1 C           6.4304   -3.9656   22.9047 C.3     1  UNL1        0.0894
      2 C           5.0017   -3.9069   22.4517 C.3     1  UNL1        0.0399
      3 C           4.6825   -3.6696   21.0054 C.3     1  UNL1        0.0740
      4 N           5.7921   -3.4910   20.0120 N.3     1  UNL1       -0.2725
      5 C           7.2209   -3.5496   20.4649 C.3     1  UNL1        0.0740
      6 C           7.5400   -3.7869   21.9112 C.3     1  UNL1        0.0399
      7 C           5.7639   -1.9384   25.3737 C.3     1  UNL1        0.0718
      8 C           6.4432   -3.2711   25.4859 C.ar    1  UNL1        0.1207
      9 N           6.9354   -3.9060   26.7526 N.ar    1  UNL1       -0.2309
     10 C           7.5460   -5.2302   26.4006 C.ar    1  UNL1        0.0983
     11 C           8.1917   -6.2925   27.2399 C.ar    1  UNL1        0.0206
     12 C           8.7225   -7.5383   26.5948 C.ar    1  UNL1        0.0016
     13 C           8.6076   -7.7218   25.1105 C.ar    1  UNL1        0.0016
     14 C           7.9619   -6.6595   24.2713 C.ar    1  UNL1        0.0188
     15 C           7.4311   -5.4136   24.9163 C.ar    1  UNL1        0.0785
     16 N           6.7495   -4.2029   24.3510 N.ar    1  UNL1       -0.3167
     17 C           5.4729   -3.2537   18.5657 C.3     1  UNL1        0.0728
     18 C           4.2518   -2.4697   18.1859 C.3     1  UNL1        0.0261
     19 C           4.1965   -0.9938   18.4485 C.3     1  UNL1        0.0459
     20 C           5.4200   -0.1499   18.2469 C.ar    1  UNL1       -0.0184
     21 C           5.8595    0.2148   16.8598 C.ar    1  UNL1       -0.0040
     22 C           7.0830    1.0588   16.6583 C.ar    1  UNL1       -0.0003
     23 C           7.8672    1.5380   17.8438 C.ar    1  UNL1       -0.0000
     24 C           7.4278    1.1733   19.2309 C.ar    1  UNL1       -0.0003
     25 C           6.2042    0.3294   19.4324 C.ar    1  UNL1       -0.0040
     26 C           2.9177   -0.3621   18.9125 C.ar    1  UNL1       -0.0184
     27 C           2.4224    0.8948   18.2606 C.ar    1  UNL1       -0.0040
     28 C           1.1436    1.5267   18.7246 C.ar    1  UNL1       -0.0003
     29 C           0.3600    0.9016   19.8405 C.ar    1  UNL1       -0.0000
     30 C           0.8552   -0.3553   20.4925 C.ar    1  UNL1       -0.0003
     31 C           2.1340   -0.9871   20.0284 C.ar    1  UNL1       -0.0040
@<TRIPOS>BOND
     1     7     8    1
     2     8     9   ar
     3     9    10   ar
     4    10    11   ar
     5    11    12   ar
     6    12    13   ar
     7    13    14   ar
     8    14    15   ar
     9    15    16   ar
    10    16     1    1
    11     1     2    1
    12     2     3    1
    13     3     4    1
    14     4    17    1
    15    17    18    1
    16    18    19    1
    17    19    20    1
    18    20    21   ar
    19    21    22   ar
    20    22    23   ar
    21    23    24   ar
    22    24    25   ar
    23    19    26    1
    24    26    27   ar
    25    27    28   ar
    26    28    29   ar
    27    29    30   ar
    28    30    31   ar
    29     4     5    1
    30     5     6    1
    31    16     8   ar
    32     6     1    1
    33    15    10   ar
    34    25    20   ar
    35    31    26   ar
@<TRIPOS>MOLECULE
*****
 31 35 0 0 0
SMALL
GASTEIGER

@<TRIPOS>ATOM
      1 C           4.4591   -1.5186   19.8557 C.3     1  UNL1        0.0894
      2 C           5.7988   -0.9464   20.2131 C.3     1  UNL1        0.0399
      3 C           6.9179   -1.8569   20.6235 C.3     1  UNL1        0.0740
      4 N           6.6974   -3.3396   20.6766 N.3     1  UNL1       -0.2725
      5 C           5.3577   -3.9119   20.3192 C.3     1  UNL1        0.0740
      6 C           4.2385   -3.0014   19.9088 C.3     1  UNL1        0.0399
      7 C           3.6769   -0.6996   16.7951 C.3     1  UNL1        0.0718
      8 C           2.9804   -0.2317   18.0384 C.ar    1  UNL1        0.1207
      9 N           1.8021    0.6949   18.0933 N.ar    1  UNL1       -0.2309
     10 C           1.4334    0.8911   19.5340 C.ar    1  UNL1        0.0983
     11 C           0.3550    1.6991   20.1930 C.ar    1  UNL1        0.0206
     12 C           0.2270    1.7017   21.6875 C.ar    1  UNL1        0.0016
     13 C           1.1775    0.8964   22.5230 C.ar    1  UNL1        0.0016
     14 C           2.2559    0.0885   21.8640 C.ar    1  UNL1        0.0188
     15 C           2.3838    0.0858   20.3695 C.ar    1  UNL1        0.0785
     16 N           3.3399   -0.6081   19.4452 N.ar    1  UNL1       -0.3167
     17 C           7.8166   -4.2501   21.0871 C.3     1  UNL1        0.0728
     18 C           8.4278   -4.1197   22.4506 C.3     1  UNL1        0.0261
     19 C           7.5522   -4.1246   23.6686 C.3     1  UNL1        0.0459
     20 C           7.5367   -5.3188   24.5762 C.ar    1  UNL1       -0.0184
     21 C           8.1439   -6.6134   24.1228 C.ar    1  UNL1       -0.0040
     22 C           8.1284   -7.8075   25.0304 C.ar    1  UNL1       -0.0003
     23 C           7.5056   -7.7071   26.3914 C.ar    1  UNL1       -0.0000
     24 C           6.8984   -6.4126   26.8447 C.ar    1  UNL1       -0.0003
     25 C           6.9139   -5.2184   25.9371 C.ar    1  UNL1       -0.0040
     26 C           6.6923   -2.9355   23.9788 C.ar    1  UNL1       -0.0184
     27 C           7.3204   -1.6601   24.4573 C.ar    1  UNL1       -0.0040
     28 C           6.4605   -0.4709   24.7676 C.ar    1  UNL1       -0.0003
     29 C           4.9725   -0.5570   24.5994 C.ar    1  UNL1       -0.0000
     30 C           4.3443   -1.8324   24.1210 C.ar    1  UNL1       -0.0003
     31 C           5.2042   -3.0216   23.8107 C.ar    1  UNL1       -0.0040
@<TRIPOS>BOND
     1     7     8    1
     2     8     9   ar
     3     9    10   ar
     4    10    11   ar
     5    11    12   ar
     6    12    13   ar
     7    13    14   ar
     8    14    15   ar
     9    15    16   ar
    10    16     1    1
    11     1     2    1
    12     2     3    1
    13     3     4    1
    14     4    17    1
    15    17    18    1
    16    18    19    1
    17    19    20    1
    18    20    21   ar
    19    21    22   ar
    20    22    23   ar
    21    23    24   ar
    22    24    25   ar
    23    19    26    1
    24    26    27   ar
    25    27    28   ar
    26    28    29   ar
    27    29    30   ar
    28    30    31   ar
    29     4     5    1
    30     5     6    1
    31    16     8   ar
    32     6     1    1
    33    15    10   ar
    34    25    20   ar
    35    31    26   ar
@<TRIPOS>MOLECULE
*****
 31 35 0 0 0
SMALL
GASTEIGER

@<TRIPOS>ATOM
      1 C          -5.1252  -18.8048   22.1842 C.3     1  UNL1        0.0894
      2 C          -5.4033  -20.2719   22.0432 C.3     1  UNL1        0.0399
      3 C          -6.8062  -20.7857   22.1772 C.3     1  UNL1        0.0740
      4 N          -7.9310  -19.8322   22.4523 N.3     1  UNL1       -0.2725
      5 C          -7.6529  -18.3650   22.5933 C.3     1  UNL1        0.0740
      6 C          -6.2500  -17.8512   22.4592 C.3     1  UNL1        0.0399
      7 C          -3.2439  -17.7072   24.6144 C.3     1  UNL1        0.0718
      8 C          -2.8576  -17.7865   23.1671 C.ar    1  UNL1        0.1207
      9 N          -1.5387  -17.3753   22.5828 N.ar    1  UNL1       -0.2309
     10 C          -1.5883  -17.6256   21.1047 C.ar    1  UNL1        0.0983
     11 C          -0.5789  -17.4113   20.0160 C.ar    1  UNL1        0.0206
     12 C          -0.9191  -17.7630   18.5981 C.ar    1  UNL1        0.0016
     13 C          -2.2687  -18.3290   18.2689 C.ar    1  UNL1        0.0016
     14 C          -3.2780  -18.5433   19.3575 C.ar    1  UNL1        0.0188
     15 C          -2.9378  -18.1916   20.7754 C.ar    1  UNL1        0.0785
     16 N          -3.7223  -18.2910   22.0501 N.ar    1  UNL1       -0.3167
     17 C          -9.3339  -20.3460   22.5863 C.3     1  UNL1        0.0728
     18 C         -10.3079  -19.6420   23.4840 C.3     1  UNL1        0.0261
     19 C         -10.3846  -18.1439   23.4790 C.3     1  UNL1        0.0459
     20 C         -11.1203  -17.4344   22.3812 C.ar    1  UNL1       -0.0184
     21 C         -12.3895  -16.6947   22.6850 C.ar    1  UNL1       -0.0040
     22 C         -13.1252  -15.9851   21.5871 C.ar    1  UNL1       -0.0003
     23 C         -12.5917  -16.0152   20.1855 C.ar    1  UNL1       -0.0000
     24 C         -11.3226  -16.7548   19.8817 C.ar    1  UNL1       -0.0003
     25 C         -10.5869  -17.4644   20.9796 C.ar    1  UNL1       -0.0040
     26 C          -9.7258  -17.3556   24.5719 C.ar    1  UNL1       -0.0184
     27 C          -9.4910  -17.9844   25.9133 C.ar    1  UNL1       -0.0040
     28 C          -8.8322  -17.1961   27.0062 C.ar    1  UNL1       -0.0003
     29 C          -8.4080  -15.7790   26.7577 C.ar    1  UNL1       -0.0000
     30 C          -8.6427  -15.1501   25.4162 C.ar    1  UNL1       -0.0003
     31 C          -9.3016  -15.9384   24.3233 C.ar    1  UNL1       -0.0040
@<TRIPOS>BOND
     1     7     8    1
     2     8     9   ar
     3     9    10   ar
     4    10    11   ar
     5    11    12   ar
     6    12    13   ar
     7    13    14   ar
     8    14    15   ar
     9    15    16   ar
    10    16     1    1
    11     1     2    1
    12     2     3    1
    13     3     4    1
    14     4    17    1
    15    17    18    1
    16    18    19    1
    17    19    20    1
    18    20    21   ar
    19    21    22   ar
    20    22    23   ar
    21    23    24   ar
    22    24    25   ar
    23    19    26    1
    24    26    27   ar
    25    27    28   ar
    26    28    29   ar
    27    29    30   ar
    28    30    31   ar
    29     4     5    1
    30     5     6    1
    31    16     8   ar
    32     6     1    1
    33    15    10   ar
    34    25    20   ar
    35    31    26   ar
@<TRIPOS>MOLECULE
*****
 31 35 0 0 0
SMALL
GASTEIGER

@<TRIPOS>ATOM
      1 C          -5.1032  -18.8083   22.1588 C.3     1  UNL1        0.0894
      2 C          -5.3845  -20.2754   22.0238 C.3     1  UNL1        0.0399
      3 C          -6.7892  -20.7850   22.1546 C.3     1  UNL1        0.0740
      4 N          -7.9127  -19.8274   22.4204 N.3     1  UNL1       -0.2725
      5 C          -7.6315  -18.3602   22.5554 C.3     1  UNL1        0.0740
      6 C          -6.2268  -17.8506   22.4246 C.3     1  UNL1        0.0399
      7 C          -3.2170  -17.7358   24.5963 C.3     1  UNL1        0.0718
      8 C          -2.8315  -17.8057   23.1484 C.ar    1  UNL1        0.1207
      9 N          -1.5114  -17.3950   22.5666 N.ar    1  UNL1       -0.2309
     10 C          -1.5624  -17.6341   21.0866 C.ar    1  UNL1        0.0983
     11 C          -0.5527  -17.4154   19.9991 C.ar    1  UNL1        0.0206
     12 C          -0.8948  -17.7553   18.5788 C.ar    1  UNL1        0.0016
     13 C          -2.2465  -18.3138   18.2459 C.ar    1  UNL1        0.0016
     14 C          -3.2562  -18.5325   19.3334 C.ar    1  UNL1        0.0188
     15 C          -2.9142  -18.1927   20.7537 C.ar    1  UNL1        0.0785
     16 N          -3.6985  -18.2987   22.0280 N.ar    1  UNL1       -0.3167
     17 C          -9.3174  -20.3370   22.5512 C.3     1  UNL1        0.0728
     18 C         -10.2831  -19.6472   23.4686 C.3     1  UNL1        0.0261
     19 C         -10.3714  -18.1498   23.4759 C.3     1  UNL1        0.0459
     20 C          -9.7168  -17.3653   24.5741 C.ar    1  UNL1       -0.0184
     21 C          -9.5018  -17.9936   25.9192 C.ar    1  UNL1       -0.0040
     22 C          -8.8472  -17.2091   27.0174 C.ar    1  UNL1       -0.0003
     23 C          -8.4075  -15.7964   26.7705 C.ar    1  UNL1       -0.0000
     24 C          -8.6224  -15.1681   25.4255 C.ar    1  UNL1       -0.0003
     25 C          -9.2770  -15.9526   24.3273 C.ar    1  UNL1       -0.0040
     26 C         -11.1143  -17.4369   22.3851 C.ar    1  UNL1       -0.0184
     27 C         -10.5971  -17.4740   20.9775 C.ar    1  UNL1       -0.0040
     28 C         -11.3400  -16.7612   19.8866 C.ar    1  UNL1       -0.0003
     29 C         -12.5999  -16.0113   20.2033 C.ar    1  UNL1       -0.0000
     30 C         -13.1170  -15.9743   21.6108 C.ar    1  UNL1       -0.0003
     31 C         -12.3742  -16.6871   22.7017 C.ar    1  UNL1       -0.0040
@<TRIPOS>BOND
     1     7     8    1
     2     8     9   ar
     3     9    10   ar
     4    10    11   ar
     5    11    12   ar
     6    12    13   ar
     7    13    14   ar
     8    14    15   ar
     9    15    16   ar
    10    16     1    1
    11     1     2    1
    12     2     3    1
    13     3     4    1
    14     4    17    1
    15    17    18    1
    16    18    19    1
    17    19    20    1
    18    20    21   ar
    19    21    22   ar
    20    22    23   ar
    21    23    24   ar
    22    24    25   ar
    23    19    26    1
    24    26    27   ar
    25    27    28   ar
    26    28    29   ar
    27    29    30   ar
    28    30    31   ar
    29     4     5    1
    30     5     6    1
    31    16     8   ar
    32     6     1    1
    33    15    10   ar
    34    25    20   ar
    35    31    26   ar
@<TRIPOS>MOLECULE
*****
 31 35 0 0 0
SMALL
GASTEIGER

@<TRIPOS>ATOM
      1 C           1.5854    0.9859   27.3533 C.3     1  UNL1        0.0894
      2 C           0.9352    1.5252   26.1138 C.3     1  UNL1        0.0399
      3 C           1.5323    1.2383   24.7681 C.3     1  UNL1        0.0740
      4 N           2.7798    0.4122   24.6617 N.3     1  UNL1       -0.2725
      5 C           3.4301   -0.1271   25.9012 C.3     1  UNL1        0.0740
      6 C           2.8329    0.1597   27.2470 C.3     1  UNL1        0.0399
      7 C          -1.0766   -0.4224   28.6103 C.3     1  UNL1        0.0718
      8 C          -0.2354    0.6254   29.2768 C.ar    1  UNL1        0.1207
      9 N          -0.4700    1.2099   30.6382 N.ar    1  UNL1       -0.2309
     10 C           0.6086    2.2186   30.9018 C.ar    1  UNL1        0.0983
     11 C           0.8865    3.1066   32.0782 C.ar    1  UNL1        0.0206
     12 C           2.0656    4.0335   32.0562 C.ar    1  UNL1        0.0016
     13 C           2.9668    4.0723   30.8578 C.ar    1  UNL1        0.0016
     14 C           2.6889    3.1843   29.6813 C.ar    1  UNL1        0.0188
     15 C           1.5098    2.2574   29.7033 C.ar    1  UNL1        0.0785
     16 N           0.9882    1.2728   28.6991 N.ar    1  UNL1       -0.3167
     17 C           3.3770    0.1253   23.3160 C.3     1  UNL1        0.0728
     18 C           3.1868   -1.2210   22.6826 C.3     1  UNL1        0.0261
     19 C           3.1803   -1.3527   21.1883 C.3     1  UNL1        0.0459
     20 C           2.4188   -0.3674   20.3520 C.ar    1  UNL1       -0.0184
     21 C           3.1122    0.3714   19.2459 C.ar    1  UNL1       -0.0040
     22 C           2.3507    1.3566   18.4095 C.ar    1  UNL1       -0.0003
     23 C           0.8959    1.6030   18.6793 C.ar    1  UNL1       -0.0000
     24 C           0.2025    0.8642   19.7854 C.ar    1  UNL1       -0.0003
     25 C           0.9640   -0.1210   20.6217 C.ar    1  UNL1       -0.0040
     26 C           3.9352   -2.4695   20.5306 C.ar    1  UNL1       -0.0184
     27 C           5.3672   -2.7246   20.8972 C.ar    1  UNL1       -0.0040
     28 C           6.1222   -3.8414   20.2395 C.ar    1  UNL1       -0.0003
     29 C           5.4453   -4.7031   19.2151 C.ar    1  UNL1       -0.0000
     30 C           4.0134   -4.4479   18.8485 C.ar    1  UNL1       -0.0003
     31 C           3.2584   -3.3311   19.5062 C.ar    1  UNL1       -0.0040
@<TRIPOS>BOND
     1     7     8    1
     2     8     9   ar
     3     9    10   ar
     4    10    11   ar
     5    11    12   ar
     6    12    13   ar
     7    13    14   ar
     8    14    15   ar
     9    15    16   ar
    10    16     1    1
    11     1     2    1
    12     2     3    1
    13     3     4    1
    14     4    17    1
    15    17    18    1
    16    18    19    1
    17    19    20    1
    18    20    21   ar
    19    21    22   ar
    20    22    23   ar
    21    23    24   ar
    22    24    25   ar
    23    19    26    1
    24    26    27   ar
    25    27    28   ar
    26    28    29   ar
    27    29    30   ar
    28    30    31   ar
    29     4     5    1
    30     5     6    1
    31    16     8   ar
    32     6     1    1
    33    15    10   ar
    34    25    20   ar
    35    31    26   ar
@<TRIPOS>MOLECULE
*****
 31 35 0 0 0
SMALL
GASTEIGER

@<TRIPOS>ATOM
      1 C           2.5226   -0.2008   19.7135 C.3     1  UNL1        0.0894
      2 C           2.7430    1.2661   19.4912 C.3     1  UNL1        0.0399
      3 C           1.6362    2.2408   19.7649 C.3     1  UNL1        0.0740
      4 N           0.3089    1.7486   20.2610 N.3     1  UNL1       -0.2725
      5 C           0.0885    0.2816   20.4834 C.3     1  UNL1        0.0740
      6 C           1.1953   -0.6931   20.2096 C.3     1  UNL1        0.0399
      7 C           3.8703   -0.8051   16.8035 C.3     1  UNL1        0.0718
      8 C           4.2488   -1.4533   18.1022 C.ar    1  UNL1        0.1207
      9 N           5.3133   -2.4930   18.2913 N.ar    1  UNL1       -0.2309
     10 C           5.3517   -2.8579   19.7458 C.ar    1  UNL1        0.0983
     11 C           6.1999   -3.8264   20.5155 C.ar    1  UNL1        0.0206
     12 C           6.0074   -3.9805   21.9951 C.ar    1  UNL1        0.0016
     13 C           4.9666   -3.1662   22.7049 C.ar    1  UNL1        0.0016
     14 C           4.1184   -2.1978   21.9351 C.ar    1  UNL1        0.0188
     15 C           4.3110   -2.0436   20.4555 C.ar    1  UNL1        0.0785
     16 N           3.6294   -1.1755   19.4397 N.ar    1  UNL1       -0.3167
     17 C          -0.7979    2.7233   20.5348 C.3     1  UNL1        0.0728
     18 C          -1.1248    3.1097   21.9468 C.3     1  UNL1        0.0261
     19 C          -2.4905    3.6300   22.2849 C.3     1  UNL1        0.0459
     20 C          -3.4128    4.0816   21.1915 C.ar    1  UNL1       -0.0184
     21 C          -3.3454    5.4933   20.6888 C.ar    1  UNL1       -0.0040
     22 C          -4.2677    5.9449   19.5955 C.ar    1  UNL1       -0.0003
     23 C          -5.2574    4.9848   19.0049 C.ar    1  UNL1       -0.0000
     24 C          -5.3248    3.5732   19.5076 C.ar    1  UNL1       -0.0003
     25 C          -4.4025    3.1216   20.6009 C.ar    1  UNL1       -0.0040
     26 C          -2.9338    3.6986   23.7162 C.ar    1  UNL1       -0.0184
     27 C          -4.3943    3.7923   24.0453 C.ar    1  UNL1       -0.0040
     28 C          -4.8376    3.8610   25.4766 C.ar    1  UNL1       -0.0003
     29 C          -3.8206    3.8360   26.5788 C.ar    1  UNL1       -0.0000
     30 C          -2.3601    3.7423   26.2497 C.ar    1  UNL1       -0.0003
     31 C          -1.9167    3.6736   24.8184 C.ar    1  UNL1       -0.0040
@<TRIPOS>BOND
     1     7     8    1
     2     8     9   ar
     3     9    10   ar
     4    10    11   ar
     5    11    12   ar
     6    12    13   ar
     7    13    14   ar
     8    14    15   ar
     9    15    16   ar
    10    16     1    1
    11     1     2    1
    12     2     3    1
    13     3     4    1
    14     4    17    1
    15    17    18    1
    16    18    19    1
    17    19    20    1
    18    20    21   ar
    19    21    22   ar
    20    22    23   ar
    21    23    24   ar
    22    24    25   ar
    23    19    26    1
    24    26    27   ar
    25    27    28   ar
    26    28    29   ar
    27    29    30   ar
    28    30    31   ar
    29     4     5    1
    30     5     6    1
    31    16     8   ar
    32     6     1    1
    33    15    10   ar
    34    25    20   ar
    35    31    26   ar
@<TRIPOS>MOLECULE
*****
 31 35 0 0 0
SMALL
GASTEIGER

@<TRIPOS>ATOM
      1 C           2.6211   -0.2632   19.7126 C.3     1  UNL1        0.0894
      2 C           2.8381    1.2167   19.6004 C.3     1  UNL1        0.0399
      3 C           1.7231    2.1652   19.9278 C.3     1  UNL1        0.0740
      4 N           0.3911    1.6338   20.3674 N.3     1  UNL1       -0.2725
      5 C           0.1740    0.1538   20.4796 C.3     1  UNL1        0.0740
      6 C           1.2890   -0.7947   20.1522 C.3     1  UNL1        0.0399
      7 C           3.8138   -0.8673   16.7356 C.3     1  UNL1        0.0718
      8 C           4.2843   -1.4894   18.0169 C.ar    1  UNL1        0.1207
      9 N           5.3856   -2.4983   18.1548 N.ar    1  UNL1       -0.2309
     10 C           5.5181   -2.8443   19.6083 C.ar    1  UNL1        0.0983
     11 C           6.4353   -3.7806   20.3376 C.ar    1  UNL1        0.0206
     12 C           6.3330   -3.9218   21.8274 C.ar    1  UNL1        0.0016
     13 C           5.3136   -3.1266   22.5879 C.ar    1  UNL1        0.0016
     14 C           4.3964   -2.1902   21.8586 C.ar    1  UNL1        0.0188
     15 C           4.4986   -2.0491   20.3688 C.ar    1  UNL1        0.0785
     16 N           3.7361   -1.2117   19.3852 N.ar    1  UNL1       -0.3167
     17 C          -0.7239    2.5823   20.6947 C.3     1  UNL1        0.0728
     18 C          -0.5754    3.5510   21.8303 C.3     1  UNL1        0.0261
     19 C          -0.2883    3.0468   23.2135 C.3     1  UNL1        0.0459
     20 C          -1.3036    3.2265   24.3030 C.ar    1  UNL1       -0.0184
     21 C          -0.9106    3.0203   25.7359 C.ar    1  UNL1       -0.0040
     22 C          -1.9259    3.2000   26.8254 C.ar    1  UNL1       -0.0003
     23 C          -3.3341    3.5860   26.4819 C.ar    1  UNL1       -0.0000
     24 C          -3.7271    3.7923   25.0490 C.ar    1  UNL1       -0.0003
     25 C          -2.7118    3.6125   23.9596 C.ar    1  UNL1       -0.0040
     26 C           1.0140    2.3629   23.5073 C.ar    1  UNL1       -0.0184
     27 C           2.2984    3.1346   23.4390 C.ar    1  UNL1       -0.0040
     28 C           3.6008    2.4508   23.7327 C.ar    1  UNL1       -0.0003
     29 C           3.6186    0.9953   24.0948 C.ar    1  UNL1       -0.0000
     30 C           2.3342    0.2236   24.1631 C.ar    1  UNL1       -0.0003
     31 C           1.0319    0.9074   23.8694 C.ar    1  UNL1       -0.0040
@<TRIPOS>BOND
     1     7     8    1
     2     8     9   ar
     3     9    10   ar
     4    10    11   ar
     5    11    12   ar
     6    12    13   ar
     7    13    14   ar
     8    14    15   ar
     9    15    16   ar
    10    16     1    1
    11     1     2    1
    12     2     3    1
    13     3     4    1
    14     4    17    1
    15    17    18    1
    16    18    19    1
    17    19    20    1
    18    20    21   ar
    19    21    22   ar
    20    22    23   ar
    21    23    24   ar
    22    24    25   ar
    23    19    26    1
    24    26    27   ar
    25    27    28   ar
    26    28    29   ar
    27    29    30   ar
    28    30    31   ar
    29     4     5    1
    30     5     6    1
    31    16     8   ar
    32     6     1    1
    33    15    10   ar
    34    25    20   ar
    35    31    26   ar
