@<TRIPOS>MOLECULE
*****
 38 41 0 0 0
SMALL
GASTEIGER

@<TRIPOS>ATOM
      1 C          -0.1005    3.2832   20.0314 C.ar    1  UNL1       -0.0074
      2 C          -1.5581    3.2732   20.3855 C.ar    1  UNL1       -0.0050
      3 C          -2.0436    4.0309   21.5856 C.ar    1  UNL1        0.0067
      4 C          -1.0715    4.7985   22.4316 C.ar    1  UNL1       -0.0010
      5 C           0.3860    4.8086   22.0775 C.ar    1  UNL1        0.0108
      6 C           0.8716    4.0509   20.8774 C.ar    1  UNL1        0.0540
      7 CL          2.3291    4.0609   20.5233 Cl      1  UNL1       -0.0826
      8 C          -3.5012    4.0209   21.9397 C.3     1  UNL1        0.1667
      9 O          -4.5257    4.3947   20.9098 O.3     1  UNL1       -0.3466
     10 C          -5.9833    4.3847   21.2639 C.3     1  UNL1        0.1739
     11 C          -6.4163    4.0008   22.6479 C.3     1  UNL1        0.1692
     12 O          -7.8739    3.9908   23.0019 O.3     1  UNL1       -0.3794
     13 C          -5.3918    3.6270   23.6776 C.3     1  UNL1        0.1692
     14 O          -5.8248    3.2431   25.0615 O.3     1  UNL1       -0.3794
     15 C          -3.9342    3.6370   23.3235 C.3     1  UNL1        0.1709
     16 O          -2.9096    3.2632   24.3533 O.3     1  UNL1       -0.3792
     17 H          -8.3963    4.2554   22.2286 H       1  UNL1        0.2105
     18 H          -6.7918    3.2884   25.1219 H       1  UNL1        0.2105
     19 H          -2.0233    3.3212   23.9635 H       1  UNL1        0.2106
     20 C          -7.0079    4.7585   20.2341 C.3     1  UNL1        0.1692
     21 O          -8.0882    5.7424   20.5736 O.3     1  UNL1       -0.3794
     22 H          -8.6697    5.3630   21.2510 H       1  UNL1        0.2105
     23 C           0.3850    2.5256   18.8313 C.3     1  UNL1        0.0535
     24 C           3.0192   -1.0838   19.3634 C.ar    1  UNL1        0.0558
     25 C           3.4242    0.0073   18.4171 C.ar    1  UNL1        0.0147
     26 C           2.5461    1.2104   18.2397 C.ar    1  UNL1       -0.0027
     27 C           1.2631    1.3224   19.0087 C.ar    1  UNL1       -0.0177
     28 C           0.8581    0.2313   19.9550 C.ar    1  UNL1       -0.0027
     29 C           1.7362   -0.9718   20.1323 C.ar    1  UNL1        0.0147
     30 N           5.7416   -3.7222   20.1960 N.am    1  UNL1       -0.2125
     31 C           4.7554   -4.5547   19.4314 C.2     1  UNL1        0.2532
     32 O           4.8861   -6.0173   19.1255 O.2     1  UNL1       -0.2725
     33 C           3.6156   -3.6676   19.0264 C.3     1  UNL1        0.1851
     34 N           3.8973   -2.2870   19.5407 N.am    1  UNL1       -0.2336
     35 C           5.2113   -2.3207   20.2635 C.2     1  UNL1        0.3171
     36 O           5.8779   -1.1573   20.9359 O.2     1  UNL1       -0.2516
     37 C           7.2857   -4.0526   22.2592 C.3     1  UNL1        0.0238
     38 C           7.0316   -4.2063   20.7889 C.3     1  UNL1        0.1026
@<TRIPOS>BOND
     1    37    38    1
     2    38    30    1
     3    30    31   am
     4    31    32    2
     5    31    33    1
     6    33    34    1
     7    34    24    1
     8    24    25   ar
     9    25    26   ar
    10    26    27   ar
    11    27    23    1
    12    23     1    1
    13     1     2   ar
    14     2     3   ar
    15     8     3    1
    16     8     9    1
    17     9    10    1
    18    10    20    1
    19    20    21    1
    20    10    11    1
    21    11    12    1
    22    11    13    1
    23    13    14    1
    24    13    15    1
    25    15    16    1
    26     3     4   ar
    27     4     5   ar
    28     5     6   ar
    29     6     7    1
    30    27    28   ar
    31    28    29   ar
    32    34    35   am
    33    35    36    2
    34    35    30   am
    35    29    24   ar
    36     6     1   ar
    37    15     8    1
    38    21    22    1
    39    12    17    1
    40    14    18    1
    41    16    19    1
@<TRIPOS>MOLECULE
*****
 38 41 0 0 0
SMALL
GASTEIGER

@<TRIPOS>ATOM
      1 C          -1.3695    4.2452   18.6562 C.ar    1  UNL1       -0.0074
      2 C          -1.8371    4.2024   20.0808 C.ar    1  UNL1       -0.0050
      3 C          -3.2914    3.9997   20.3871 C.ar    1  UNL1        0.0067
      4 C          -4.2782    3.8399   19.2688 C.ar    1  UNL1       -0.0010
      5 C          -3.8107    3.8827   17.8442 C.ar    1  UNL1        0.0108
      6 C          -2.3564    4.0853   17.5378 C.ar    1  UNL1        0.0540
      7 CL         -1.8889    4.1281   16.1132 Cl      1  UNL1       -0.0826
      8 C          -3.7590    3.9569   21.8118 C.3     1  UNL1        0.1667
      9 O          -5.1927    4.2517   22.1398 O.3     1  UNL1       -0.3466
     10 C          -5.6602    4.2089   23.5644 C.3     1  UNL1        0.1739
     11 C          -4.6940    3.8713   24.6611 C.3     1  UNL1        0.1692
     12 O          -5.1615    3.8285   26.0857 O.3     1  UNL1       -0.3794
     13 C          -3.2603    3.5766   24.3330 C.3     1  UNL1        0.1692
     14 O          -2.2941    3.2390   25.4296 O.3     1  UNL1       -0.3794
     15 C          -2.7928    3.6194   22.9084 C.3     1  UNL1        0.1709
     16 O          -1.3591    3.3246   22.5803 O.3     1  UNL1       -0.3792
     17 H          -6.1070    4.0418   26.1223 H       1  UNL1        0.2105
     18 H          -2.7551    3.2550   26.2829 H       1  UNL1        0.2105
     19 H          -1.2256    3.3950   21.6221 H       1  UNL1        0.2106
     20 C          -7.0939    4.5036   23.8925 C.3     1  UNL1        0.1692
     21 O          -8.1924    3.8591   23.1001 O.3     1  UNL1       -0.3794
     22 H          -8.1651    4.1834   22.1863 H       1  UNL1        0.2105
     23 C           0.0848    4.4478   18.3498 C.3     1  UNL1        0.0535
     24 C           2.9007    0.9379   18.3786 C.ar    1  UNL1        0.0558
     25 C           3.4442    2.3356   18.4063 C.ar    1  UNL1        0.0147
     26 C           2.5055    3.5056   18.3968 C.ar    1  UNL1       -0.0027
     27 C           1.0234    3.2778   18.3594 C.ar    1  UNL1       -0.0177
     28 C           0.4799    1.8800   18.3317 C.ar    1  UNL1       -0.0027
     29 C           1.4185    0.7101   18.3413 C.ar    1  UNL1        0.0147
     30 N           4.8364   -2.3875   18.8892 N.am    1  UNL1       -0.2125
     31 C           5.7311   -1.6777   17.9166 C.2     1  UNL1        0.2532
     32 O           7.0163   -2.2071   17.3527 O.2     1  UNL1       -0.2725
     33 C           5.1148   -0.3457   17.6070 C.3     1  UNL1        0.1851
     34 N           3.8393   -0.2322   18.3882 N.am    1  UNL1       -0.2336
     35 C           3.6673   -1.4941   19.1807 C.2     1  UNL1        0.3171
     36 O           2.5264   -1.8076   20.1027 O.2     1  UNL1       -0.2516
     37 C           4.1973   -4.9000   19.0581 C.3     1  UNL1        0.0238
     38 C           5.0699   -3.7512   19.4687 C.3     1  UNL1        0.1026
@<TRIPOS>BOND
     1    37    38    1
     2    38    30    1
     3    30    31   am
     4    31    32    2
     5    31    33    1
     6    33    34    1
     7    34    24    1
     8    24    25   ar
     9    25    26   ar
    10    26    27   ar
    11    27    23    1
    12    23     1    1
    13     1     2   ar
    14     2     3   ar
    15     8     3    1
    16     8     9    1
    17     9    10    1
    18    10    20    1
    19    20    21    1
    20    10    11    1
    21    11    12    1
    22    11    13    1
    23    13    14    1
    24    13    15    1
    25    15    16    1
    26     3     4   ar
    27     4     5   ar
    28     5     6   ar
    29     6     7    1
    30    27    28   ar
    31    28    29   ar
    32    34    35   am
    33    35    36    2
    34    35    30   am
    35    29    24   ar
    36     6     1   ar
    37    15     8    1
    38    21    22    1
    39    12    17    1
    40    14    18    1
    41    16    19    1
@<TRIPOS>MOLECULE
*****
 38 41 0 0 0
SMALL
GASTEIGER

@<TRIPOS>ATOM
      1 C           6.2909   -3.4274   20.4253 C.ar    1  UNL1       -0.0074
      2 C           6.1399   -3.9874   21.8086 C.ar    1  UNL1       -0.0050
      3 C           7.3180   -4.0220   22.7365 C.ar    1  UNL1        0.0067
      4 C           8.6471   -3.4967   22.2810 C.ar    1  UNL1       -0.0010
      5 C           8.7981   -2.9366   20.8976 C.ar    1  UNL1        0.0108
      6 C           7.6200   -2.9020   19.9698 C.ar    1  UNL1        0.0540
      7 CL          7.7710   -2.3420   18.5865 Cl      1  UNL1       -0.0826
      8 C           7.1671   -4.5820   24.1198 C.3     1  UNL1        0.1667
      9 O           7.6210   -5.9807   24.4164 O.3     1  UNL1       -0.3466
     10 C           7.4700   -6.5407   25.7997 C.3     1  UNL1        0.1739
     11 C           6.8651   -5.7021   26.8865 C.3     1  UNL1        0.1692
     12 O           6.7141   -6.2621   28.2698 O.3     1  UNL1       -0.3794
     13 C           6.4112   -4.3035   26.5898 C.3     1  UNL1        0.1692
     14 O           5.8063   -3.4650   27.6765 O.3     1  UNL1       -0.3794
     15 C           6.5622   -3.7435   25.2065 C.3     1  UNL1        0.1709
     16 O           6.1083   -2.3450   24.9099 O.3     1  UNL1       -0.3792
     17 H           7.0543   -7.1703   28.2898 H       1  UNL1        0.2105
     18 H           5.7825   -3.9737   28.5021 H       1  UNL1        0.2105
     19 H           6.2765   -2.1416   23.9765 H       1  UNL1        0.2106
     20 C           7.9239   -7.9392   26.0964 C.3     1  UNL1        0.1692
     21 O           7.0275   -8.8741   26.8531 O.3     1  UNL1       -0.3794
     22 H           6.9090   -8.5464   27.7584 H       1  UNL1        0.2105
     23 C           5.1128   -3.3928   19.4975 C.3     1  UNL1        0.0535
     24 C           2.5009    0.2670   19.3128 C.ar    1  UNL1        0.0558
     25 C           3.2070   -0.2135   18.0797 C.ar    1  UNL1        0.0147
     26 C           4.0776   -1.4334   18.1413 C.ar    1  UNL1       -0.0027
     27 C           4.2421   -2.1728   19.4360 C.ar    1  UNL1       -0.0177
     28 C           3.5361   -1.6923   20.6691 C.ar    1  UNL1       -0.0027
     29 C           2.6655   -0.4724   20.6075 C.ar    1  UNL1        0.0147
     30 N          -0.2313    3.0124   19.5644 N.am    1  UNL1       -0.2125
     31 C           0.8125    3.7162   18.7488 C.2     1  UNL1        0.2532
     32 O           0.7217    5.1168   18.2197 O.2     1  UNL1       -0.2725
     33 C           1.9630    2.7734   18.5553 C.3     1  UNL1        0.1851
     34 N           1.6303    1.4870   19.2513 N.am    1  UNL1       -0.2336
     35 C           0.2741    1.6347   19.8749 C.2     1  UNL1        0.3171
     36 O          -0.4496    0.5884   20.6696 O.2     1  UNL1       -0.2516
     37 C          -2.5540    4.0100   18.9642 C.3     1  UNL1        0.0238
     38 C          -1.5492    3.5857   19.9940 C.3     1  UNL1        0.1026
@<TRIPOS>BOND
     1    37    38    1
     2    38    30    1
     3    30    31   am
     4    31    32    2
     5    31    33    1
     6    33    34    1
     7    34    24    1
     8    24    25   ar
     9    25    26   ar
    10    26    27   ar
    11    27    23    1
    12    23     1    1
    13     1     2   ar
    14     2     3   ar
    15     8     3    1
    16     8     9    1
    17     9    10    1
    18    10    20    1
    19    20    21    1
    20    10    11    1
    21    11    12    1
    22    11    13    1
    23    13    14    1
    24    13    15    1
    25    15    16    1
    26     3     4   ar
    27     4     5   ar
    28     5     6   ar
    29     6     7    1
    30    27    28   ar
    31    28    29   ar
    32    34    35   am
    33    35    36    2
    34    35    30   am
    35    29    24   ar
    36     6     1   ar
    37    15     8    1
    38    21    22    1
    39    12    17    1
    40    14    18    1
    41    16    19    1
@<TRIPOS>MOLECULE
*****
 38 41 0 0 0
SMALL
GASTEIGER

@<TRIPOS>ATOM
      1 C         -12.7919   -4.8845   18.6330 C.ar    1  UNL1       -0.0074
      2 C         -14.0223   -5.6161   19.0811 C.ar    1  UNL1       -0.0050
      3 C         -14.5173   -6.7986   18.3020 C.ar    1  UNL1        0.0067
      4 C         -13.7818   -7.2494   17.0749 C.ar    1  UNL1       -0.0010
      5 C         -12.5514   -6.5178   16.6268 C.ar    1  UNL1        0.0108
      6 C         -12.0564   -5.3354   17.4058 C.ar    1  UNL1        0.0540
      7 CL        -10.8260   -4.6038   16.9577 Cl      1  UNL1       -0.0826
      8 C         -15.7477   -7.5302   18.7501 C.3     1  UNL1        0.1667
      9 O         -17.0380   -6.7869   18.9314 O.3     1  UNL1       -0.3466
     10 C         -18.2684   -7.5185   19.3795 C.3     1  UNL1        0.1739
     11 C         -18.2086   -8.9934   19.6463 C.3     1  UNL1        0.1692
     12 O         -19.4390   -9.7250   20.0944 O.3     1  UNL1       -0.3794
     13 C         -16.9184   -9.7366   19.4651 C.3     1  UNL1        0.1692
     14 O         -16.8586  -11.2114   19.7319 O.3     1  UNL1       -0.3794
     15 C         -15.6879   -9.0050   19.0170 C.3     1  UNL1        0.1709
     16 O         -14.3977   -9.7482   18.8357 O.3     1  UNL1       -0.3792
     17 H         -20.1795   -9.1019   20.1609 H       1  UNL1        0.2105
     18 H         -17.7330  -11.5252   20.0110 H       1  UNL1        0.2105
     19 H         -13.7075   -9.1318   18.5450 H       1  UNL1        0.2106
     20 C         -19.5587   -6.7753   19.5607 C.3     1  UNL1        0.1692
     21 O         -20.4630   -7.1115   20.7093 O.3     1  UNL1       -0.3794
     22 H         -20.8082   -8.0109   20.5965 H       1  UNL1        0.2105
     23 C         -12.2970   -3.7021   19.4120 C.3     1  UNL1        0.0535
     24 C         -13.7636    0.4308   18.4032 C.ar    1  UNL1        0.0558
     25 C         -12.3081    0.0965   18.2628 C.ar    1  UNL1        0.0147
     26 C         -11.8193   -1.2811   18.5990 C.ar    1  UNL1       -0.0027
     27 C         -12.7859   -2.3244   19.0757 C.ar    1  UNL1       -0.0177
     28 C         -14.2413   -1.9901   19.2162 C.ar    1  UNL1       -0.0027
     29 C         -14.7302   -0.6124   18.8799 C.ar    1  UNL1        0.0147
     30 N         -15.4648    3.9098   18.1416 N.am    1  UNL1       -0.2125
     31 C         -14.5449    3.9472   16.9573 C.2     1  UNL1        0.2532
     32 O         -14.3997    5.0837   15.9892 O.2     1  UNL1       -0.2725
     33 C         -13.7957    2.6485   16.9112 C.3     1  UNL1        0.1851
     34 N         -14.2525    1.8085   18.0669 N.am    1  UNL1       -0.2336
     35 C         -15.2841    2.5880   18.8273 C.2     1  UNL1        0.3171
     36 O         -16.0079    2.1268   20.0575 O.2     1  UNL1       -0.2516
     37 C         -15.8548    6.3197   19.0305 C.3     1  UNL1        0.0238
     38 C         -16.4010    5.0024   18.5656 C.3     1  UNL1        0.1026
@<TRIPOS>BOND
     1    37    38    1
     2    38    30    1
     3    30    31   am
     4    31    32    2
     5    31    33    1
     6    33    34    1
     7    34    24    1
     8    24    25   ar
     9    25    26   ar
    10    26    27   ar
    11    27    23    1
    12    23     1    1
    13     1     2   ar
    14     2     3   ar
    15     8     3    1
    16     8     9    1
    17     9    10    1
    18    10    20    1
    19    20    21    1
    20    10    11    1
    21    11    12    1
    22    11    13    1
    23    13    14    1
    24    13    15    1
    25    15    16    1
    26     3     4   ar
    27     4     5   ar
    28     5     6   ar
    29     6     7    1
    30    27    28   ar
    31    28    29   ar
    32    34    35   am
    33    35    36    2
    34    35    30   am
    35    29    24   ar
    36     6     1   ar
    37    15     8    1
    38    21    22    1
    39    12    17    1
    40    14    18    1
    41    16    19    1
@<TRIPOS>MOLECULE
*****
 38 41 0 0 0
SMALL
GASTEIGER

@<TRIPOS>ATOM
      1 C          -1.0931    2.8802   25.1439 C.ar    1  UNL1       -0.0074
      2 C          -2.4693    3.3183   25.5492 C.ar    1  UNL1       -0.0050
      3 C          -3.0259    4.6130   25.0352 C.ar    1  UNL1        0.0067
      4 C          -2.2064    5.4695   24.1161 C.ar    1  UNL1       -0.0010
      5 C          -0.8303    5.0313   23.7109 C.ar    1  UNL1        0.0108
      6 C          -0.2736    3.7367   24.2248 C.ar    1  UNL1        0.0540
      7 CL          1.1026    3.2986   23.8195 Cl      1  UNL1       -0.0826
      8 C          -4.4021    5.0511   25.4404 C.3     1  UNL1        0.1667
      9 O          -5.5462    4.9132   24.4802 O.3     1  UNL1       -0.3466
     10 C          -6.9224    5.3514   24.8854 C.3     1  UNL1        0.1739
     11 C          -7.1544    5.9274   26.2509 C.3     1  UNL1        0.1692
     12 O          -8.5306    6.3655   26.6561 O.3     1  UNL1       -0.3794
     13 C          -6.0103    6.0652   27.2110 C.3     1  UNL1        0.1692
     14 O          -6.2424    6.6412   28.5764 O.3     1  UNL1       -0.3794
     15 C          -4.6342    5.6271   26.8058 C.3     1  UNL1        0.1709
     16 O          -3.4901    5.7650   27.7660 O.3     1  UNL1       -0.3792
     17 H          -9.1483    6.2087   25.9248 H       1  UNL1        0.2105
     18 H          -7.1796    6.8711   28.6754 H       1  UNL1        0.2105
     19 H          -2.6774    5.4377   27.3497 H       1  UNL1        0.2106
     20 C          -8.0665    5.2135   23.9252 C.3     1  UNL1        0.1692
     21 O          -8.4517    3.8596   23.4070 O.3     1  UNL1       -0.3794
     22 H          -7.7346    3.5080   22.8565 H       1  UNL1        0.2105
     23 C          -0.5365    1.5856   25.6578 C.3     1  UNL1        0.0535
     24 C           1.2324    1.3797   29.7904 C.ar    1  UNL1        0.0558
     25 C           0.0905    0.4814   29.4178 C.ar    1  UNL1        0.0147
     26 C          -0.4991    0.5500   28.0403 C.ar    1  UNL1       -0.0027
     27 C           0.0532    1.5170   27.0354 C.ar    1  UNL1       -0.0177
     28 C           1.1952    2.4153   27.4080 C.ar    1  UNL1       -0.0027
     29 C           1.7848    2.3467   28.7855 C.ar    1  UNL1        0.0147
     30 N           3.2062    0.6743   33.0573 N.am    1  UNL1       -0.2125
     31 C           2.2528    1.7367   33.5184 C.2     1  UNL1        0.2532
     32 O           2.1694    2.3055   34.9038 O.2     1  UNL1       -0.2725
     33 C           1.3974    2.1301   32.3507 C.3     1  UNL1        0.1851
     34 N           1.8221    1.3111   31.1680 N.am    1  UNL1       -0.2336
     35 C           2.9400    0.4113   31.6047 C.2     1  UNL1        0.3171
     36 O           3.6646   -0.5778   30.7407 O.2     1  UNL1       -0.2516
     37 C           4.2566   -1.5013   34.0129 C.3     1  UNL1        0.0238
     38 C           4.2437   -0.0056   33.9008 C.3     1  UNL1        0.1026
@<TRIPOS>BOND
     1    37    38    1
     2    38    30    1
     3    30    31   am
     4    31    32    2
     5    31    33    1
     6    33    34    1
     7    34    24    1
     8    24    25   ar
     9    25    26   ar
    10    26    27   ar
    11    27    23    1
    12    23     1    1
    13     1     2   ar
    14     2     3   ar
    15     8     3    1
    16     8     9    1
    17     9    10    1
    18    10    20    1
    19    20    21    1
    20    10    11    1
    21    11    12    1
    22    11    13    1
    23    13    14    1
    24    13    15    1
    25    15    16    1
    26     3     4   ar
    27     4     5   ar
    28     5     6   ar
    29     6     7    1
    30    27    28   ar
    31    28    29   ar
    32    34    35   am
    33    35    36    2
    34    35    30   am
    35    29    24   ar
    36     6     1   ar
    37    15     8    1
    38    21    22    1
    39    12    17    1
    40    14    18    1
    41    16    19    1
@<TRIPOS>MOLECULE
*****
 38 41 0 0 0
SMALL
GASTEIGER

@<TRIPOS>ATOM
      1 C           0.6545    1.5180   19.5907 C.ar    1  UNL1       -0.0074
      2 C          -0.6990    1.7508   20.1940 C.ar    1  UNL1       -0.0050
      3 C          -1.2235    3.1483   20.3426 C.ar    1  UNL1        0.0067
      4 C          -0.3946    4.3128   19.8879 C.ar    1  UNL1       -0.0010
      5 C           0.9589    4.0800   19.2847 C.ar    1  UNL1        0.0108
      6 C           1.4834    2.6826   19.1361 C.ar    1  UNL1        0.0540
      7 CL          2.8369    2.4497   18.5328 Cl      1  UNL1       -0.0826
      8 C          -2.5770    3.3812   20.9458 C.3     1  UNL1        0.1667
      9 O          -2.7428    3.3861   22.4367 O.3     1  UNL1       -0.3466
     10 C          -4.0963    3.6190   23.0399 C.3     1  UNL1        0.1739
     11 C          -5.2839    3.8469   22.1523 C.3     1  UNL1        0.1692
     12 O          -6.6374    4.0797   22.7556 O.3     1  UNL1       -0.3794
     13 C          -5.1180    3.8419   20.6616 C.3     1  UNL1        0.1692
     14 O          -6.3056    4.0698   19.7741 O.3     1  UNL1       -0.3794
     15 C          -3.7645    3.6090   20.0583 C.3     1  UNL1        0.1709
     16 O          -3.5987    3.6041   18.5676 O.3     1  UNL1       -0.3792
     17 H          -6.5695    4.0515   23.7228 H       1  UNL1        0.2105
     18 H          -7.0964    4.2026   20.3199 H       1  UNL1        0.2105
     19 H          -2.6684    3.4408   18.3463 H       1  UNL1        0.2106
     20 C          -4.2622    3.6240   24.5307 C.3     1  UNL1        0.1692
     21 O          -5.5622    3.1923   25.1421 O.3     1  UNL1       -0.3794
     22 H          -6.2587    3.8222   24.8992 H       1  UNL1        0.2105
     23 C           1.1790    0.1206   19.4421 C.3     1  UNL1        0.0535
     24 C           3.8581   -1.6257   22.6080 C.ar    1  UNL1        0.0558
     25 C           3.8818   -2.1819   21.2152 C.ar    1  UNL1        0.0147
     26 C           2.9888   -1.5998   20.1599 C.ar    1  UNL1       -0.0027
     27 C           2.0721   -0.4615   20.4975 C.ar    1  UNL1       -0.0177
     28 C           2.0483    0.0947   21.8903 C.ar    1  UNL1       -0.0027
     29 C           2.9413   -0.4875   22.9456 C.ar    1  UNL1        0.0147
     30 N           6.3063   -3.6651   24.8245 N.am    1  UNL1       -0.2125
     31 C           5.9442   -2.5419   25.7504 C.2     1  UNL1        0.2532
     32 O           6.4539   -2.3525   27.1484 O.2     1  UNL1       -0.2725
     33 C           4.9831   -1.6412   25.0328 C.3     1  UNL1        0.1851
     34 N           4.7511   -2.2078   23.6634 N.am    1  UNL1       -0.2336
     35 C           5.5689   -3.4587   23.5347 C.2     1  UNL1        0.3171
     36 O           5.6373   -4.3471   22.3281 O.2     1  UNL1       -0.2516
     37 C           6.9002   -5.7769   26.2166 C.3     1  UNL1        0.0238
     38 C           7.2416   -4.7963   25.1341 C.3     1  UNL1        0.1026
@<TRIPOS>BOND
     1    37    38    1
     2    38    30    1
     3    30    31   am
     4    31    32    2
     5    31    33    1
     6    33    34    1
     7    34    24    1
     8    24    25   ar
     9    25    26   ar
    10    26    27   ar
    11    27    23    1
    12    23     1    1
    13     1     2   ar
    14     2     3   ar
    15     8     3    1
    16     8     9    1
    17     9    10    1
    18    10    20    1
    19    20    21    1
    20    10    11    1
    21    11    12    1
    22    11    13    1
    23    13    14    1
    24    13    15    1
    25    15    16    1
    26     3     4   ar
    27     4     5   ar
    28     5     6   ar
    29     6     7    1
    30    27    28   ar
    31    28    29   ar
    32    34    35   am
    33    35    36    2
    34    35    30   am
    35    29    24   ar
    36     6     1   ar
    37    15     8    1
    38    21    22    1
    39    12    17    1
    40    14    18    1
    41    16    19    1
@<TRIPOS>MOLECULE
*****
 38 41 0 0 0
SMALL
GASTEIGER

@<TRIPOS>ATOM
      1 C           1.1596    1.7387   22.7395 C.ar    1  UNL1       -0.0074
      2 C           1.8096    0.6544   21.9322 C.ar    1  UNL1       -0.0050
      3 C           2.8104    1.0065   20.8716 C.ar    1  UNL1        0.0067
      4 C           3.1610    2.4428   20.6185 C.ar    1  UNL1       -0.0010
      5 C           2.5110    3.5270   21.4259 C.ar    1  UNL1        0.0108
      6 C           1.5103    3.1750   22.4864 C.ar    1  UNL1        0.0540
      7 CL          0.8603    4.2593   23.2938 Cl      1  UNL1       -0.0826
      8 C           3.4604   -0.0778   20.0643 C.3     1  UNL1        0.1667
      9 O           4.3287   -1.0977   20.7396 O.3     1  UNL1       -0.3466
     10 C           4.9787   -2.1819   19.9322 C.3     1  UNL1        0.1739
     11 C           4.7604   -2.2463   18.4495 C.3     1  UNL1        0.1692
     12 O           5.4104   -3.3306   17.6421 O.3     1  UNL1       -0.3794
     13 C           3.8922   -1.2264   17.7743 C.3     1  UNL1        0.1692
     14 O           3.6740   -1.2908   16.2917 O.3     1  UNL1       -0.3794
     15 C           3.2422   -0.1422   18.5816 C.3     1  UNL1        0.1709
     16 O           2.3739    0.8777   17.9064 O.3     1  UNL1       -0.3792
     17 H           5.9330   -3.9006   18.2277 H       1  UNL1        0.2105
     18 H           4.1614   -2.0454   15.9256 H       1  UNL1        0.2105
     19 H           2.0348    1.5019   18.5669 H       1  UNL1        0.2106
     20 C           5.8469   -3.2018   20.6074 C.3     1  UNL1        0.1692
     21 O           5.6801   -4.6581   20.2886 O.3     1  UNL1       -0.3794
     22 H           4.8096   -4.9582   20.5938 H       1  UNL1        0.2105
     23 C           0.1589    1.3867   23.8000 C.3     1  UNL1        0.0535
     24 C           1.4931    0.8531   28.0644 C.ar    1  UNL1        0.0558
     25 C           0.0345    1.0022   27.7480 C.ar    1  UNL1        0.0147
     26 C          -0.4102    1.1800   26.3266 C.ar    1  UNL1       -0.0027
     27 C           0.6037    1.2088   25.2215 C.ar    1  UNL1       -0.0177
     28 C           2.0623    1.0598   25.5379 C.ar    1  UNL1       -0.0027
     29 C           2.5071    0.8819   26.9594 C.ar    1  UNL1        0.0147
     30 N           2.3671    1.0870   31.8390 N.am    1  UNL1       -0.2125
     31 C           2.8776   -0.2841   31.5077 C.2     1  UNL1        0.2532
     32 O           3.5374   -1.2338   32.4629 O.2     1  UNL1       -0.2725
     33 C           2.6123   -0.5385   30.0534 C.3     1  UNL1        0.1851
     34 N           1.9379    0.6752   29.4859 N.am    1  UNL1       -0.2336
     35 C           1.7864    1.6798   30.5895 C.2     1  UNL1        0.3171
     36 O           1.1635    3.0387   30.4653 O.2     1  UNL1       -0.2516
     37 C           3.6832    2.4401   33.6242 C.3     1  UNL1        0.0238
     38 C           2.4269    1.7490   33.1837 C.3     1  UNL1        0.1026
@<TRIPOS>BOND
     1    37    38    1
     2    38    30    1
     3    30    31   am
     4    31    32    2
     5    31    33    1
     6    33    34    1
     7    34    24    1
     8    24    25   ar
     9    25    26   ar
    10    26    27   ar
    11    27    23    1
    12    23     1    1
    13     1     2   ar
    14     2     3   ar
    15     8     3    1
    16     8     9    1
    17     9    10    1
    18    10    20    1
    19    20    21    1
    20    10    11    1
    21    11    12    1
    22    11    13    1
    23    13    14    1
    24    13    15    1
    25    15    16    1
    26     3     4   ar
    27     4     5   ar
    28     5     6   ar
    29     6     7    1
    30    27    28   ar
    31    28    29   ar
    32    34    35   am
    33    35    36    2
    34    35    30   am
    35    29    24   ar
    36     6     1   ar
    37    15     8    1
    38    21    22    1
    39    12    17    1
    40    14    18    1
    41    16    19    1
@<TRIPOS>MOLECULE
*****
 38 41 0 0 0
SMALL
GASTEIGER

@<TRIPOS>ATOM
      1 C           0.3852    1.8239   24.3531 C.ar    1  UNL1       -0.0074
      2 C           1.1660    0.6068   23.9542 C.ar    1  UNL1       -0.0050
      3 C           2.0766    0.6570   22.7632 C.ar    1  UNL1        0.0067
      4 C           2.2063    1.9242   21.9712 C.ar    1  UNL1       -0.0010
      5 C           1.4255    3.1412   22.3701 C.ar    1  UNL1        0.0108
      6 C           0.5149    3.0911   23.5610 C.ar    1  UNL1        0.0540
      7 CL         -0.2659    4.3082   23.9599 Cl      1  UNL1       -0.0826
      8 C           2.8574   -0.5600   22.3643 C.3     1  UNL1        0.1667
      9 O           2.8799   -1.0000   20.9305 O.3     1  UNL1       -0.3466
     10 C           3.6607   -2.2171   20.5316 C.3     1  UNL1        0.1739
     11 C           4.4190   -2.9941   21.5666 C.3     1  UNL1        0.1692
     12 O           5.1998   -4.2112   21.1677 O.3     1  UNL1       -0.3794
     13 C           4.3965   -2.5541   23.0004 C.3     1  UNL1        0.1692
     14 O           5.1548   -3.3312   24.0353 O.3     1  UNL1       -0.3794
     15 C           3.6157   -1.3371   23.3993 C.3     1  UNL1        0.1709
     16 O           3.5932   -0.8971   24.8331 O.3     1  UNL1       -0.3792
     17 H           5.1091   -4.3549   20.2127 H       1  UNL1        0.2105
     18 H           5.6011   -4.0820   23.6133 H       1  UNL1        0.2105
     19 H           3.0466   -0.1003   24.9182 H       1  UNL1        0.2106
     20 C           3.6832   -2.6571   19.0978 C.3     1  UNL1        0.1692
     21 O           3.6583   -4.1187   18.7613 O.3     1  UNL1       -0.3794
     22 H           4.4770   -4.5360   19.0720 H       1  UNL1        0.2105
     23 C          -0.5253    1.7738   25.5441 C.3     1  UNL1        0.0535
     24 C           1.2046    1.4893   29.6885 C.ar    1  UNL1        0.0558
     25 C           1.6776    2.5597   28.7502 C.ar    1  UNL1        0.0147
     26 C           1.1009    2.6545   27.3688 C.ar    1  UNL1       -0.0027
     27 C           0.0513    1.6789   26.9256 C.ar    1  UNL1       -0.0177
     28 C          -0.4217    0.6085   27.8639 C.ar    1  UNL1       -0.0027
     29 C           0.1549    0.5137   29.2453 C.ar    1  UNL1        0.0147
     30 N           3.1520    0.7268   32.9583 N.am    1  UNL1       -0.2125
     31 C           2.1850    1.7704   33.4336 C.2     1  UNL1        0.2532
     32 O           2.0831    2.3070   34.8306 O.2     1  UNL1       -0.2725
     33 C           1.3378    2.1830   32.2666 C.3     1  UNL1        0.1851
     34 N           1.7812    1.3945   31.0700 N.am    1  UNL1       -0.2336
     35 C           2.9025    0.4945   31.4976 C.2     1  UNL1        0.3171
     36 O           3.6440   -0.4687   30.6187 O.2     1  UNL1       -0.2516
     37 C           4.2373   -1.4618   33.8429 C.3     1  UNL1        0.0238
     38 C           4.1869    0.0367   33.7966 C.3     1  UNL1        0.1026
@<TRIPOS>BOND
     1    37    38    1
     2    38    30    1
     3    30    31   am
     4    31    32    2
     5    31    33    1
     6    33    34    1
     7    34    24    1
     8    24    25   ar
     9    25    26   ar
    10    26    27   ar
    11    27    23    1
    12    23     1    1
    13     1     2   ar
    14     2     3   ar
    15     8     3    1
    16     8     9    1
    17     9    10    1
    18    10    20    1
    19    20    21    1
    20    10    11    1
    21    11    12    1
    22    11    13    1
    23    13    14    1
    24    13    15    1
    25    15    16    1
    26     3     4   ar
    27     4     5   ar
    28     5     6   ar
    29     6     7    1
    30    27    28   ar
    31    28    29   ar
    32    34    35   am
    33    35    36    2
    34    35    30   am
    35    29    24   ar
    36     6     1   ar
    37    15     8    1
    38    21    22    1
    39    12    17    1
    40    14    18    1
    41    16    19    1
@<TRIPOS>MOLECULE
*****
 38 41 0 0 0
SMALL
GASTEIGER

@<TRIPOS>ATOM
      1 C         -14.0862   -3.2735   18.2926 C.ar    1  UNL1       -0.0074
      2 C         -14.9315   -4.5110   18.3572 C.ar    1  UNL1       -0.0050
      3 C         -14.4218   -5.7312   19.0654 C.ar    1  UNL1        0.0067
      4 C         -13.0670   -5.7138   19.7090 C.ar    1  UNL1       -0.0010
      5 C         -12.2218   -4.4763   19.6444 C.ar    1  UNL1        0.0108
      6 C         -12.7314   -3.2562   18.9362 C.ar    1  UNL1        0.0540
      7 CL        -11.8861   -2.0187   18.8716 Cl      1  UNL1       -0.0826
      8 C         -15.2671   -6.9687   19.1300 C.3     1  UNL1        0.1667
      9 O         -16.6353   -6.9113   19.7423 O.3     1  UNL1       -0.3466
     10 C         -17.4805   -8.1488   19.8069 C.3     1  UNL1        0.1739
     11 C         -16.9575   -9.4437   19.2593 C.3     1  UNL1        0.1692
     12 O         -17.8027  -10.6812   19.3239 O.3     1  UNL1       -0.3794
     13 C         -15.5893   -9.5010   18.6471 C.3     1  UNL1        0.1692
     14 O         -15.0664  -10.7959   18.0996 O.3     1  UNL1       -0.3794
     15 C         -14.7441   -8.2635   18.5825 C.3     1  UNL1        0.1709
     16 O         -13.3760   -8.3209   17.9703 O.3     1  UNL1       -0.3792
     17 H         -18.6506  -10.4720   19.7460 H       1  UNL1        0.2105
     18 H         -15.7328  -11.4904   18.2198 H       1  UNL1        0.2105
     19 H         -12.9676   -7.4418   18.0084 H       1  UNL1        0.2106
     20 C         -18.8487   -8.0914   20.4190 C.3     1  UNL1        0.1692
     21 O         -19.9693   -8.8941   19.8274 O.3     1  UNL1       -0.3794
     22 H         -20.1741   -8.5587   18.9405 H       1  UNL1        0.2105
     23 C         -14.5958   -2.0533   17.5845 C.3     1  UNL1        0.0535
     24 C         -16.3293    1.3607   19.9486 C.ar    1  UNL1        0.0558
     25 C         -16.5590   -0.0530   20.3942 C.ar    1  UNL1        0.0147
     26 C         -15.9812   -1.1910   19.6061 C.ar    1  UNL1       -0.0027
     27 C         -15.1736   -0.9152   18.3725 C.ar    1  UNL1       -0.0177
     28 C         -14.9440    0.4985   17.9269 C.ar    1  UNL1       -0.0027
     29 C         -15.5218    1.6364   18.7149 C.ar    1  UNL1        0.0147
     30 N         -17.1308    4.5955   21.9384 N.am    1  UNL1       -0.2125
     31 C         -18.4621    3.9045   21.9601 C.2     1  UNL1        0.2532
     32 O         -19.7120    4.4191   22.6104 O.2     1  UNL1       -0.2725
     33 C         -18.3238    2.6087   21.2174 C.3     1  UNL1        0.1851
     34 N         -16.9072    2.4988   20.7366 N.am    1  UNL1       -0.2336
     35 C         -16.1699    3.7267   21.1822 C.2     1  UNL1        0.3171
     36 O         -14.7253    4.0323   20.9180 O.2     1  UNL1       -0.2516
     37 C         -15.9059    5.9938   23.7534 C.3     1  UNL1        0.0238
     38 C         -16.8159    5.9224   22.5631 C.3     1  UNL1        0.1026
@<TRIPOS>BOND
     1    37    38    1
     2    38    30    1
     3    30    31   am
     4    31    32    2
     5    31    33    1
     6    33    34    1
     7    34    24    1
     8    24    25   ar
     9    25    26   ar
    10    26    27   ar
    11    27    23    1
    12    23     1    1
    13     1     2   ar
    14     2     3   ar
    15     8     3    1
    16     8     9    1
    17     9    10    1
    18    10    20    1
    19    20    21    1
    20    10    11    1
    21    11    12    1
    22    11    13    1
    23    13    14    1
    24    13    15    1
    25    15    16    1
    26     3     4   ar
    27     4     5   ar
    28     5     6   ar
    29     6     7    1
    30    27    28   ar
    31    28    29   ar
    32    34    35   am
    33    35    36    2
    34    35    30   am
    35    29    24   ar
    36     6     1   ar
    37    15     8    1
    38    21    22    1
    39    12    17    1
    40    14    18    1
    41    16    19    1
