@<TRIPOS>MOLECULE
*****
 28 30 0 0 0
SMALL
GASTEIGER

@<TRIPOS>ATOM
      1 C          -9.7951  -18.7860   22.5231 C.ar    1  UNL1        0.1721
      2 C          -8.3462  -18.9627   22.1777 C.ar    1  UNL1        0.0368
      3 C          -7.3244  -18.0064   22.7176 C.ar    1  UNL1       -0.0084
      4 C          -7.7515  -16.8735   23.6030 C.ar    1  UNL1       -0.0203
      5 C          -9.2004  -16.6967   23.9484 C.ar    1  UNL1        0.0356
      6 C         -10.2222  -17.6530   23.4085 C.ar    1  UNL1        0.1723
      7 C          -6.7297  -15.9172   24.1429 C.3     1  UNL1        0.0435
      8 C          -5.2808  -16.0939   23.7975 C.3     1  UNL1        0.0770
      9 N          -4.8536  -17.2269   22.9120 N.3     1  UNL1       -0.2699
     10 C          -3.4047  -17.4037   22.5666 C.3     1  UNL1        0.0747
     11 C          -2.9775  -18.5367   21.6812 C.3     1  UNL1        0.0429
     12 C          -3.9993  -19.4929   21.1413 C.3     1  UNL1        0.1135
     13 O          -3.5722  -20.6259   20.2559 O.3     1  UNL1       -0.3844
     14 C          -5.4483  -19.3162   21.4868 C.3     1  UNL1        0.0497
     15 C          -5.8754  -18.1832   22.3721 C.3     1  UNL1        0.0823
     16 H          -4.3498  -21.1445   19.9966 H       1  UNL1        0.2103
     17 C         -10.9270  -19.9659   20.5041 C.3     1  UNL1        0.2526
     18 O         -10.8169  -19.7422   21.9832 O.3     1  UNL1       -0.4684
     19 O         -11.6712  -17.4762   23.7540 O.3     1  UNL1       -0.4635
     20 C         -12.5592  -16.6557   22.8662 C.3     1  UNL1        0.3082
     21 C         -12.3430  -16.6567   21.3818 C.3     1  UNL1        0.4380
     22 F         -12.1270  -16.6577   19.8975 F       1  UNL1       -0.1663
     23 F         -11.4108  -15.4893   21.5167 F       1  UNL1       -0.1663
     24 F         -13.2753  -17.8240   21.2469 F       1  UNL1       -0.1663
     25 C          -1.5286  -18.7134   21.3358 C.3     1  UNL1        0.0038
     26 C          -0.9645  -18.0583   20.1100 C.3     1  UNL1        0.0001
     27 C          -1.8270  -17.8661   18.8980 C.3     1  UNL1        0.0000
     28 C           0.4622  -17.5953   20.0962 C.3     1  UNL1        0.0000
@<TRIPOS>BOND
     1    17    18    1
     2    18     1    1
     3     1     2   ar
     4     2     3   ar
     5     3     4   ar
     6     4     5   ar
     7     5     6   ar
     8     6    19    1
     9    19    20    1
    10    20    21    1
    11    21    22    1
    12    21    23    1
    13    21    24    1
    14     4     7    1
    15     7     8    1
    16     8     9    1
    17     9    10    1
    18    10    11    1
    19    11    25    1
    20    25    26    1
    21    26    27    1
    22    26    28    1
    23    11    12    1
    24    12    13    1
    25    12    14    1
    26    14    15    1
    27     6     1   ar
    28    15     9    1
    29    15     3    1
    30    13    16    1
@<TRIPOS>MOLECULE
*****
 28 30 0 0 0
SMALL
GASTEIGER

@<TRIPOS>ATOM
      1 C          -9.1411  -17.1263   23.9219 C.ar    1  UNL1        0.1721
      2 C          -7.7263  -17.3869   23.4971 C.ar    1  UNL1        0.0368
      3 C          -7.4505  -18.1498   22.2354 C.ar    1  UNL1       -0.0084
      4 C          -8.5895  -18.6522   21.3986 C.ar    1  UNL1       -0.0203
      5 C         -10.0042  -18.3916   21.8234 C.ar    1  UNL1        0.0356
      6 C         -10.2800  -17.6287   23.0851 C.ar    1  UNL1        0.1723
      7 C          -8.3136  -19.4152   20.1369 C.3     1  UNL1        0.0435
      8 C          -6.8989  -19.6757   19.7121 C.3     1  UNL1        0.0770
      9 N          -5.7598  -19.1734   20.5490 N.3     1  UNL1       -0.2699
     10 C          -4.3451  -19.4339   20.1242 C.3     1  UNL1        0.0747
     11 C          -3.2061  -18.9315   20.9610 C.3     1  UNL1        0.0429
     12 C          -3.4819  -18.1686   22.2227 C.3     1  UNL1        0.1135
     13 O          -2.3429  -17.6662   23.0596 O.3     1  UNL1       -0.3844
     14 C          -4.8967  -17.9080   22.6475 C.3     1  UNL1        0.0497
     15 C          -6.0357  -18.4104   21.8106 C.3     1  UNL1        0.0823
     16 H          -2.6925  -17.1976   23.8336 H       1  UNL1        0.2103
     17 C          -8.2957  -15.6755   25.9044 C.3     1  UNL1        0.2526
     18 O          -9.4169  -16.3634   25.1836 O.3     1  UNL1       -0.4684
     19 O         -11.6949  -17.3681   23.5098 O.3     1  UNL1       -0.4635
     20 C         -12.4077  -18.3531   24.3882 C.3     1  UNL1        0.3082
     21 C         -13.9062  -18.4204   24.3775 C.3     1  UNL1        0.4380
     22 F         -15.4047  -18.4876   24.3668 F       1  UNL1       -0.1663
     23 F         -13.9021  -18.7474   25.8414 F       1  UNL1       -0.1663
     24 F         -13.9104  -18.0934   22.9136 F       1  UNL1       -0.1663
     25 C          -1.7913  -19.1921   20.5362 C.3     1  UNL1        0.0038
     26 C          -1.0750  -18.2022   19.6662 C.3     1  UNL1        0.0001
     27 C          -1.7241  -17.6992   18.4110 C.3     1  UNL1        0.0000
     28 C           0.2904  -17.7151   20.0514 C.3     1  UNL1        0.0000
@<TRIPOS>BOND
     1    17    18    1
     2    18     1    1
     3     1     2   ar
     4     2     3   ar
     5     3     4   ar
     6     4     5   ar
     7     5     6   ar
     8     6    19    1
     9    19    20    1
    10    20    21    1
    11    21    22    1
    12    21    23    1
    13    21    24    1
    14     4     7    1
    15     7     8    1
    16     8     9    1
    17     9    10    1
    18    10    11    1
    19    11    25    1
    20    25    26    1
    21    26    27    1
    22    26    28    1
    23    11    12    1
    24    12    13    1
    25    12    14    1
    26    14    15    1
    27     6     1   ar
    28    15     9    1
    29    15     3    1
    30    13    16    1
@<TRIPOS>MOLECULE
*****
 28 30 0 0 0
SMALL
GASTEIGER

@<TRIPOS>ATOM
      1 C          -3.8674  -19.5255   21.4766 C.ar    1  UNL1        0.1721
      2 C          -5.3448  -19.3068   21.6153 C.ar    1  UNL1        0.0368
      3 C          -5.8596  -18.1586   22.4317 C.ar    1  UNL1       -0.0084
      4 C          -4.8970  -17.2291   23.1094 C.ar    1  UNL1       -0.0203
      5 C          -3.4196  -17.4478   22.9707 C.ar    1  UNL1        0.0356
      6 C          -2.9048  -18.5960   22.1543 C.ar    1  UNL1        0.1723
      7 C          -5.4118  -16.0809   23.9259 C.3     1  UNL1        0.0435
      8 C          -6.8893  -15.8621   24.0646 C.3     1  UNL1        0.0770
      9 N          -7.8520  -16.7917   23.3868 N.3     1  UNL1       -0.2699
     10 C          -9.3294  -16.5729   23.5255 C.3     1  UNL1        0.0747
     11 C         -10.2921  -17.5024   22.8478 C.3     1  UNL1        0.0429
     12 C          -9.7773  -18.6506   22.0313 C.3     1  UNL1        0.1135
     13 O         -10.7400  -19.5801   21.3536 O.3     1  UNL1       -0.3844
     14 C          -8.2998  -18.8693   21.8927 C.3     1  UNL1        0.0497
     15 C          -7.3372  -17.9399   22.5704 C.3     1  UNL1        0.0823
     16 H         -10.2462  -20.2616   20.8713 H       1  UNL1        0.2103
     17 C          -4.1185  -21.1427   19.4587 C.3     1  UNL1        0.2526
     18 O          -3.3526  -20.6737   20.6601 O.3     1  UNL1       -0.4684
     19 O          -1.4272  -18.8148   22.0156 O.3     1  UNL1       -0.4635
     20 C          -0.7157  -18.3644   20.7743 C.3     1  UNL1        0.3082
     21 C          -1.4461  -17.5578   19.7419 C.3     1  UNL1        0.4380
     22 F          -2.1765  -16.7513   18.7095 F       1  UNL1       -0.1663
     23 F          -1.1610  -16.3062   20.5179 F       1  UNL1       -0.1663
     24 F          -1.7312  -18.8094   18.9659 F       1  UNL1       -0.1663
     25 C         -11.7696  -17.2837   22.9865 C.3     1  UNL1        0.0038
     26 C         -12.5654  -18.1221   23.9423 C.3     1  UNL1        0.0001
     27 C         -11.8682  -19.0946   24.8468 C.3     1  UNL1        0.0000
     28 C         -14.0585  -17.9881   23.9937 C.3     1  UNL1        0.0000
@<TRIPOS>BOND
     1    17    18    1
     2    18     1    1
     3     1     2   ar
     4     2     3   ar
     5     3     4   ar
     6     4     5   ar
     7     5     6   ar
     8     6    19    1
     9    19    20    1
    10    20    21    1
    11    21    22    1
    12    21    23    1
    13    21    24    1
    14     4     7    1
    15     7     8    1
    16     8     9    1
    17     9    10    1
    18    10    11    1
    19    11    25    1
    20    25    26    1
    21    26    27    1
    22    26    28    1
    23    11    12    1
    24    12    13    1
    25    12    14    1
    26    14    15    1
    27     6     1   ar
    28    15     9    1
    29    15     3    1
    30    13    16    1
@<TRIPOS>MOLECULE
*****
 28 30 0 0 0
SMALL
GASTEIGER

@<TRIPOS>ATOM
      1 C          -4.4492  -19.0001   21.6021 C.ar    1  UNL1        0.1721
      2 C          -5.7728  -18.9702   22.3071 C.ar    1  UNL1        0.0368
      3 C          -7.0412  -19.1624   21.5297 C.ar    1  UNL1       -0.0084
      4 C          -6.9859  -19.3846   20.0473 C.ar    1  UNL1       -0.0203
      5 C          -5.6623  -19.4145   19.3423 C.ar    1  UNL1        0.0356
      6 C          -4.3939  -19.2223   20.1197 C.ar    1  UNL1        0.1723
      7 C          -8.2542  -19.5768   19.2699 C.3     1  UNL1        0.0435
      8 C          -9.5779  -19.5469   19.9749 C.3     1  UNL1        0.0770
      9 N          -9.6332  -19.3247   21.4574 N.3     1  UNL1       -0.2699
     10 C         -10.9568  -19.2948   22.1624 C.3     1  UNL1        0.0747
     11 C         -11.0121  -19.0726   23.6448 C.3     1  UNL1        0.0429
     12 C          -9.7438  -18.8804   24.4222 C.3     1  UNL1        0.1135
     13 O          -9.7991  -18.6583   25.9046 O.3     1  UNL1       -0.3844
     14 C          -8.4201  -18.9103   23.7172 C.3     1  UNL1        0.0497
     15 C          -8.3648  -19.1325   22.2348 C.3     1  UNL1        0.0823
     16 H          -8.8986  -18.5533   26.2496 H       1  UNL1        0.2103
     17 C          -3.1094  -17.7609   23.4511 C.3     1  UNL1        0.2526
     18 O          -3.1808  -18.8079   22.3795 O.3     1  UNL1       -0.4684
     19 O          -3.0702  -19.2522   19.4146 O.3     1  UNL1       -0.4635
     20 C          -2.4547  -17.9768   18.9205 C.3     1  UNL1        0.3082
     21 C          -1.3864  -17.2983   19.7259 C.3     1  UNL1        0.4380
     22 F          -0.3181  -16.6199   20.5312 F       1  UNL1       -0.1663
     23 F          -2.4355  -16.5153   20.4580 F       1  UNL1       -0.1663
     24 F          -0.3372  -18.0813   18.9937 F       1  UNL1       -0.1663
     25 C         -12.3358  -19.0427   24.3498 C.3     1  UNL1        0.0038
     26 C         -13.3973  -18.0777   23.9117 C.3     1  UNL1        0.0001
     27 C         -13.0426  -16.9292   23.0144 C.3     1  UNL1        0.0000
     28 C         -14.8134  -18.2612   24.3707 C.3     1  UNL1        0.0000
@<TRIPOS>BOND
     1    17    18    1
     2    18     1    1
     3     1     2   ar
     4     2     3   ar
     5     3     4   ar
     6     4     5   ar
     7     5     6   ar
     8     6    19    1
     9    19    20    1
    10    20    21    1
    11    21    22    1
    12    21    23    1
    13    21    24    1
    14     4     7    1
    15     7     8    1
    16     8     9    1
    17     9    10    1
    18    10    11    1
    19    11    25    1
    20    25    26    1
    21    26    27    1
    22    26    28    1
    23    11    12    1
    24    12    13    1
    25    12    14    1
    26    14    15    1
    27     6     1   ar
    28    15     9    1
    29    15     3    1
    30    13    16    1
@<TRIPOS>MOLECULE
*****
 28 30 0 0 0
SMALL
GASTEIGER

@<TRIPOS>ATOM
      1 C          -3.4281  -18.0603   22.2349 C.ar    1  UNL1        0.1721
      2 C          -4.8238  -17.6340   22.5815 C.ar    1  UNL1        0.0368
      3 C          -5.9967  -18.4045   22.0516 C.ar    1  UNL1       -0.0084
      4 C          -5.7738  -19.6012   21.1752 C.ar    1  UNL1       -0.0203
      5 C          -4.3780  -20.0275   20.8287 C.ar    1  UNL1        0.0356
      6 C          -3.2052  -19.2570   21.3585 C.ar    1  UNL1        0.1723
      7 C          -6.9466  -20.3717   20.6453 C.3     1  UNL1        0.0435
      8 C          -8.3424  -19.9455   20.9918 C.3     1  UNL1        0.0770
      9 N          -8.5654  -18.7487   21.8683 N.3     1  UNL1       -0.2699
     10 C          -9.9611  -18.3224   22.2148 C.3     1  UNL1        0.0747
     11 C         -10.1841  -17.1256   23.0913 C.3     1  UNL1        0.0429
     12 C          -9.0112  -16.3552   23.6211 C.3     1  UNL1        0.1135
     13 O          -9.2341  -15.1584   24.4975 O.3     1  UNL1       -0.3844
     14 C          -7.6154  -16.7815   23.2746 C.3     1  UNL1        0.0497
     15 C          -7.3925  -17.9782   22.3982 C.3     1  UNL1        0.0823
     16 H          -8.3780  -14.7793   24.7510 H       1  UNL1        0.2103
     17 C          -1.8690  -15.9844   22.1349 C.3     1  UNL1        0.2526
     18 O          -2.2552  -17.2898   22.7648 O.3     1  UNL1       -0.4684
     19 O          -1.8093  -19.6833   21.0120 O.3     1  UNL1       -0.4635
     20 C          -1.0391  -18.9438   19.9585 C.3     1  UNL1        0.3082
     21 C          -1.7538  -18.0230   19.0144 C.3     1  UNL1        0.4380
     22 F          -2.4684  -17.1021   18.0703 F       1  UNL1       -0.1663
     23 F          -2.4950  -19.1915   18.4357 F       1  UNL1       -0.1663
     24 F          -1.0125  -16.8544   19.5931 F       1  UNL1       -0.1663
     25 C         -11.5798  -16.6994   23.4378 C.3     1  UNL1        0.0038
     26 C         -12.7523  -17.4806   22.9228 C.3     1  UNL1        0.0001
     27 C         -13.7519  -18.0535   23.8831 C.3     1  UNL1        0.0000
     28 C         -12.9250  -17.6887   21.4474 C.3     1  UNL1        0.0000
@<TRIPOS>BOND
     1    17    18    1
     2    18     1    1
     3     1     2   ar
     4     2     3   ar
     5     3     4   ar
     6     4     5   ar
     7     5     6   ar
     8     6    19    1
     9    19    20    1
    10    20    21    1
    11    21    22    1
    12    21    23    1
    13    21    24    1
    14     4     7    1
    15     7     8    1
    16     8     9    1
    17     9    10    1
    18    10    11    1
    19    11    25    1
    20    25    26    1
    21    26    27    1
    22    26    28    1
    23    11    12    1
    24    12    13    1
    25    12    14    1
    26    14    15    1
    27     6     1   ar
    28    15     9    1
    29    15     3    1
    30    13    16    1
@<TRIPOS>MOLECULE
*****
 28 30 0 0 0
SMALL
GASTEIGER

@<TRIPOS>ATOM
      1 C         -10.0734  -19.0559   21.2787 C.ar    1  UNL1        0.1721
      2 C          -8.5748  -19.1139   21.2498 C.ar    1  UNL1        0.0368
      3 C          -7.7720  -18.2107   22.1384 C.ar    1  UNL1       -0.0084
      4 C          -8.4678  -17.2494   23.0559 C.ar    1  UNL1       -0.0203
      5 C          -9.9664  -17.1915   23.0849 C.ar    1  UNL1        0.0356
      6 C         -10.7692  -18.0947   22.1962 C.ar    1  UNL1        0.1723
      7 C          -7.6650  -16.3462   23.9446 C.3     1  UNL1        0.0435
      8 C          -6.1664  -16.4042   23.9157 C.3     1  UNL1        0.0770
      9 N          -5.4706  -17.3654   22.9981 N.3     1  UNL1       -0.2699
     10 C          -3.9720  -17.4234   22.9692 C.3     1  UNL1        0.0747
     11 C          -3.2762  -18.3846   22.0516 C.3     1  UNL1        0.0429
     12 C          -4.0790  -19.2879   21.1630 C.3     1  UNL1        0.1135
     13 O          -3.3832  -20.2491   20.2454 O.3     1  UNL1       -0.3844
     14 C          -5.5776  -19.2299   21.1919 C.3     1  UNL1        0.0497
     15 C          -6.2734  -18.2687   22.1095 C.3     1  UNL1        0.0823
     16 H          -4.0433  -20.7538   19.7450 H       1  UNL1        0.2103
     17 C         -10.4670  -20.1629   18.9615 C.3     1  UNL1        0.2526
     18 O         -10.8762  -19.9592   20.3901 O.3     1  UNL1       -0.4684
     19 O         -12.2678  -18.0367   22.2252 O.3     1  UNL1       -0.4635
     20 C         -12.9701  -17.3511   23.3595 C.3     1  UNL1        0.3082
     21 C         -13.4973  -18.1551   24.5109 C.3     1  UNL1        0.4380
     22 F         -14.0244  -18.9590   25.6623 F       1  UNL1       -0.1663
     23 F         -14.9012  -17.8797   24.0604 F       1  UNL1       -0.1663
     24 F         -12.0933  -18.4304   24.9614 F       1  UNL1       -0.1663
     25 C          -1.7776  -18.4426   22.0227 C.3     1  UNL1        0.0038
     26 C          -1.0188  -17.7041   20.9602 C.3     1  UNL1        0.0001
     27 C          -0.2384  -18.4650   19.9298 C.3     1  UNL1        0.0000
     28 C          -1.0404  -16.2046   20.9282 C.3     1  UNL1        0.0000
@<TRIPOS>BOND
     1    17    18    1
     2    18     1    1
     3     1     2   ar
     4     2     3   ar
     5     3     4   ar
     6     4     5   ar
     7     5     6   ar
     8     6    19    1
     9    19    20    1
    10    20    21    1
    11    21    22    1
    12    21    23    1
    13    21    24    1
    14     4     7    1
    15     7     8    1
    16     8     9    1
    17     9    10    1
    18    10    11    1
    19    11    25    1
    20    25    26    1
    21    26    27    1
    22    26    28    1
    23    11    12    1
    24    12    13    1
    25    12    14    1
    26    14    15    1
    27     6     1   ar
    28    15     9    1
    29    15     3    1
    30    13    16    1
@<TRIPOS>MOLECULE
*****
 28 30 0 0 0
SMALL
GASTEIGER

@<TRIPOS>ATOM
      1 C         -11.2142  -17.9261   20.7970 C.ar    1  UNL1        0.1721
      2 C          -9.7482  -18.1696   20.5932 C.ar    1  UNL1        0.0368
      3 C          -9.0021  -19.0782   21.5247 C.ar    1  UNL1       -0.0084
      4 C          -9.7221  -19.7435   22.6600 C.ar    1  UNL1       -0.0203
      5 C         -11.1880  -19.5000   22.8639 C.ar    1  UNL1        0.0356
      6 C         -11.9341  -18.5914   21.9324 C.ar    1  UNL1        0.1723
      7 C          -8.9760  -20.6521   23.5916 C.3     1  UNL1        0.0435
      8 C          -7.5100  -20.8956   23.3877 C.3     1  UNL1        0.0770
      9 N          -6.7900  -20.2303   22.2523 N.3     1  UNL1       -0.2699
     10 C          -5.3241  -20.4738   22.0484 C.3     1  UNL1        0.0747
     11 C          -4.6040  -19.8085   20.9130 C.3     1  UNL1        0.0429
     12 C          -5.3501  -18.8998   19.9815 C.3     1  UNL1        0.1135
     13 O          -4.6302  -18.2346   18.8461 O.3     1  UNL1       -0.3844
     14 C          -6.8162  -18.6564   20.1854 C.3     1  UNL1        0.0497
     15 C          -7.5361  -19.3216   21.3208 C.3     1  UNL1        0.0823
     16 H          -5.2536  -17.6856   18.3453 H       1  UNL1        0.2103
     17 C         -11.3523  -15.7127   19.4437 C.3     1  UNL1        0.2526
     18 O         -11.9602  -17.0174   19.8655 O.3     1  UNL1       -0.4684
     19 O         -13.4001  -18.3479   22.1363 O.3     1  UNL1       -0.4635
     20 C         -13.8728  -17.5739   23.3310 C.3     1  UNL1        0.3082
     21 C         -14.1129  -18.2778   24.6337 C.3     1  UNL1        0.4380
     22 F         -14.3528  -18.9816   25.9364 F       1  UNL1       -0.1663
     23 F         -15.5481  -18.4914   24.2539 F       1  UNL1       -0.1663
     24 F         -12.6776  -18.0642   25.0135 F       1  UNL1       -0.1663
     25 C          -3.1381  -20.0519   20.7091 C.3     1  UNL1        0.0038
     26 C          -2.1484  -18.9658   21.0105 C.3     1  UNL1        0.0001
     27 C          -1.1775  -18.5223   19.9567 C.3     1  UNL1        0.0000
     28 C          -2.1296  -18.3231   22.3657 C.3     1  UNL1        0.0000
@<TRIPOS>BOND
     1    17    18    1
     2    18     1    1
     3     1     2   ar
     4     2     3   ar
     5     3     4   ar
     6     4     5   ar
     7     5     6   ar
     8     6    19    1
     9    19    20    1
    10    20    21    1
    11    21    22    1
    12    21    23    1
    13    21    24    1
    14     4     7    1
    15     7     8    1
    16     8     9    1
    17     9    10    1
    18    10    11    1
    19    11    25    1
    20    25    26    1
    21    26    27    1
    22    26    28    1
    23    11    12    1
    24    12    13    1
    25    12    14    1
    26    14    15    1
    27     6     1   ar
    28    15     9    1
    29    15     3    1
    30    13    16    1
@<TRIPOS>MOLECULE
*****
 28 30 0 0 0
SMALL
GASTEIGER

@<TRIPOS>ATOM
      1 C         -17.1016   -0.6362   19.9991 C.ar    1  UNL1        0.1721
      2 C         -16.0147   -1.6646   19.8941 C.ar    1  UNL1        0.0368
      3 C         -14.6787   -1.2884   19.3252 C.ar    1  UNL1       -0.0084
      4 C         -14.4296    0.1161   18.8614 C.ar    1  UNL1       -0.0203
      5 C         -15.5164    1.1445   18.9664 C.ar    1  UNL1        0.0356
      6 C         -16.8524    0.7684   19.5353 C.ar    1  UNL1        0.1723
      7 C         -13.0936    0.4922   18.2925 C.3     1  UNL1        0.0435
      8 C         -12.0067   -0.5362   18.1874 C.3     1  UNL1        0.0770
      9 N         -12.2559   -1.9408   18.6512 N.3     1  UNL1       -0.2699
     10 C         -11.1690   -2.9692   18.5461 C.3     1  UNL1        0.0747
     11 C         -11.4181   -4.3738   19.0100 C.3     1  UNL1        0.0429
     12 C         -12.7541   -4.7500   19.5789 C.3     1  UNL1        0.1135
     13 O         -13.0033   -6.1545   20.0427 O.3     1  UNL1       -0.3844
     14 C         -13.8410   -3.7215   19.6839 C.3     1  UNL1        0.0497
     15 C         -13.5919   -2.3169   19.2201 C.3     1  UNL1        0.0823
     16 H         -13.9098   -6.2276   20.3799 H       1  UNL1        0.2103
     17 C         -18.9307   -2.4243   20.4540 C.3     1  UNL1        0.2526
     18 O         -18.4376   -1.0123   20.5680 O.3     1  UNL1       -0.4684
     19 O         -17.9393    1.7969   19.6404 O.3     1  UNL1       -0.4635
     20 C         -17.8947    2.8266   20.7302 C.3     1  UNL1        0.3082
     21 C         -17.4653    2.4364   22.1135 C.3     1  UNL1        0.4380
     22 F         -17.0360    2.0463   23.4968 F       1  UNL1       -0.1663
     23 F         -16.2337    3.2803   21.9692 F       1  UNL1       -0.1663
     24 F         -18.6969    1.5926   22.2578 F       1  UNL1       -0.1663
     25 C         -10.3313   -5.4022   18.9049 C.3     1  UNL1        0.0038
     26 C         -10.4415   -6.5099   17.8995 C.3     1  UNL1        0.0001
     27 C          -9.8324   -7.8496   18.1896 C.3     1  UNL1        0.0000
     28 C         -11.1608   -6.2779   16.6038 C.3     1  UNL1        0.0000
@<TRIPOS>BOND
     1    17    18    1
     2    18     1    1
     3     1     2   ar
     4     2     3   ar
     5     3     4   ar
     6     4     5   ar
     7     5     6   ar
     8     6    19    1
     9    19    20    1
    10    20    21    1
    11    21    22    1
    12    21    23    1
    13    21    24    1
    14     4     7    1
    15     7     8    1
    16     8     9    1
    17     9    10    1
    18    10    11    1
    19    11    25    1
    20    25    26    1
    21    26    27    1
    22    26    28    1
    23    11    12    1
    24    12    13    1
    25    12    14    1
    26    14    15    1
    27     6     1   ar
    28    15     9    1
    29    15     3    1
    30    13    16    1
@<TRIPOS>MOLECULE
*****
 28 30 0 0 0
SMALL
GASTEIGER

@<TRIPOS>ATOM
      1 C           3.1412   -0.2405   26.8193 C.ar    1  UNL1        0.1721
      2 C           3.4315   -0.8092   25.4620 C.ar    1  UNL1        0.0368
      3 C           2.6969   -0.2937   24.2600 C.ar    1  UNL1       -0.0084
      4 C           1.6720    0.7905   24.4154 C.ar    1  UNL1       -0.0203
      5 C           1.3818    1.3592   25.7727 C.ar    1  UNL1        0.0356
      6 C           2.1164    0.8437   26.9746 C.ar    1  UNL1        0.1723
      7 C           0.9374    1.3060   23.2135 C.3     1  UNL1        0.0435
      8 C           1.2276    0.7373   21.8562 C.3     1  UNL1        0.0770
      9 N           2.2525   -0.3470   21.7008 N.3     1  UNL1       -0.2699
     10 C           2.5427   -0.9157   20.3435 C.3     1  UNL1        0.0747
     11 C           3.5677   -1.9999   20.1880 C.3     1  UNL1        0.0429
     12 C           4.3023   -2.5154   21.3900 C.3     1  UNL1        0.1135
     13 O           5.3271   -3.5995   21.2346 O.3     1  UNL1       -0.3844
     14 C           4.0120   -1.9466   22.7473 C.3     1  UNL1        0.0497
     15 C           2.9871   -0.8624   22.9027 C.3     1  UNL1        0.0823
     16 H           5.7045   -3.8145   22.1020 H       1  UNL1        0.2103
     17 C           5.0255   -1.7037   27.8480 C.3     1  UNL1        0.2526
     18 O           3.8759   -0.7559   28.0212 O.3     1  UNL1       -0.4684
     19 O           1.8261    1.4125   28.3320 O.3     1  UNL1       -0.4635
     20 C           0.4140    1.4706   28.8345 C.3     1  UNL1        0.3082
     21 C          -0.4665    0.2599   28.7390 C.3     1  UNL1        0.4380
     22 F          -1.3470   -0.9507   28.6436 F       1  UNL1       -0.1663
     23 F           0.5951   -0.5647   29.4044 F       1  UNL1       -0.1663
     24 F          -1.5282    1.0846   28.0736 F       1  UNL1       -0.1663
     25 C           3.8579   -2.5686   18.8308 C.3     1  UNL1        0.0038
     26 C           4.7034   -1.7986   17.8601 C.3     1  UNL1        0.0001
     27 C           4.0553   -0.8958   16.8527 C.3     1  UNL1        0.0000
     28 C           6.1970   -1.9315   17.8968 C.3     1  UNL1        0.0000
@<TRIPOS>BOND
     1    17    18    1
     2    18     1    1
     3     1     2   ar
     4     2     3   ar
     5     3     4   ar
     6     4     5   ar
     7     5     6   ar
     8     6    19    1
     9    19    20    1
    10    20    21    1
    11    21    22    1
    12    21    23    1
    13    21    24    1
    14     4     7    1
    15     7     8    1
    16     8     9    1
    17     9    10    1
    18    10    11    1
    19    11    25    1
    20    25    26    1
    21    26    27    1
    22    26    28    1
    23    11    12    1
    24    12    13    1
    25    12    14    1
    26    14    15    1
    27     6     1   ar
    28    15     9    1
    29    15     3    1
    30    13    16    1
