@<TRIPOS>MOLECULE
*****
 29 33 0 0 0
SMALL
GASTEIGER

@<TRIPOS>ATOM
      1 O           0.1282    5.8910   17.9850 O.2     1  UNL1       -0.2638
      2 C           0.1680    4.5088   18.5666 C.2     1  UNL1        0.3160
      3 N           1.3248    3.6021   18.2670 N.am    1  UNL1       -0.1720
      4 C           1.3646    2.2199   18.8485 C.ar    1  UNL1        0.0775
      5 C           2.5213    1.3132   18.5490 C.ar    1  UNL1        0.0167
      6 C           2.5611   -0.0689   19.1305 C.ar    1  UNL1        0.0013
      7 C           1.4440   -0.5442   20.0116 C.ar    1  UNL1        0.0002
      8 C           0.2873    0.3625   20.3111 C.ar    1  UNL1        0.0051
      9 C           0.2476    1.7445   19.7296 C.ar    1  UNL1        0.0623
     10 C          -0.9092    2.6513   20.0292 C.2     1  UNL1        0.2419
     11 N          -2.1454    2.4610   20.8571 N.2     1  UNL1       -0.0302
     12 C          -2.9492    3.7256   20.7873 C.2     1  UNL1        0.3787
     13 N          -2.2098    4.6973   19.9162 N.2     1  UNL1       -0.0255
     14 C          -0.9490    4.0334   19.4476 C.2     1  UNL1        0.2907
     15 C          -4.2621    3.9746   21.4690 C.ar    1  UNL1        0.1263
     16 C          -5.4811    4.2933   20.6552 C.ar    1  UNL1        0.1484
     17 F          -5.3874    4.3631   19.1598 F       1  UNL1       -0.2039
     18 C          -6.7938    4.5423   21.3369 C.ar    1  UNL1        0.0300
     19 C          -6.8875    4.4726   22.8323 C.ar    1  UNL1        0.0032
     20 C          -5.6684    4.1538   23.6461 C.ar    1  UNL1        0.0118
     21 C          -4.3557    3.9048   22.9644 C.ar    1  UNL1        0.0673
     22 CL         -3.1366    3.5860   23.7782 Cl      1  UNL1       -0.0819
     23 C           3.7179   -0.9756   18.8310 C.ar    1  UNL1        0.0009
     24 C           5.0200   -0.3994   18.3595 C.ar    1  UNL1        0.0001
     25 C           6.1768   -1.3060   18.0600 C.ar    1  UNL1        0.0009
     26 C           6.0314   -2.7891   18.2319 C.ar    1  UNL1        0.0114
     27 C           4.7293   -3.3654   18.7033 C.ar    1  UNL1        0.0577
     28 CL          4.5838   -4.8484   18.8753 Cl      1  UNL1       -0.0822
     29 C           3.5725   -2.4586   19.0029 C.ar    1  UNL1        0.0114
@<TRIPOS>BOND
     1     1     2    2
     2     2     3    1
     3     3     4    2
     4     4     5   ar
     5     5     6   ar
     6     6    23    1
     7    23    24   ar
     8    24    25   ar
     9    25    26   ar
    10    26    27   ar
    11    27    28    1
    12    27    29   ar
    13     6     7   ar
    14     7     8   ar
    15     8     9   ar
    16     9    10    2
    17    10    11    1
    18    11    12    2
    19    12    15    1
    20    15    16   ar
    21    16    17    1
    22    16    18   ar
    23    18    19   ar
    24    19    20   ar
    25    20    21   ar
    26    21    22    1
    27    12    13    1
    28    13    14    2
    29    14     2    1
    30     9     4   ar
    31    14    10    1
    32    29    23   ar
    33    21    15   ar
@<TRIPOS>MOLECULE
*****
 29 33 0 0 0
SMALL
GASTEIGER

@<TRIPOS>ATOM
      1 O           0.6664    3.8836   24.9755 O.2     1  UNL1       -0.2638
      2 C           0.6359    2.9742   23.7830 C.2     1  UNL1        0.3160
      3 N           1.7265    1.9643   23.5818 N.am    1  UNL1       -0.1720
      4 C           1.6960    1.0549   22.3892 C.ar    1  UNL1        0.0775
      5 C           2.7867    0.0450   22.1881 C.ar    1  UNL1        0.0167
      6 C           2.7561   -0.8643   20.9956 C.ar    1  UNL1        0.0013
      7 C           1.6349   -0.7638   20.0042 C.ar    1  UNL1        0.0002
      8 C           0.5442    0.2461   20.2054 C.ar    1  UNL1        0.0051
      9 C           0.5748    1.1554   21.3979 C.ar    1  UNL1        0.0623
     10 C          -0.5159    2.1654   21.5991 C.2     1  UNL1        0.2419
     11 N          -1.7399    2.4941   20.7967 N.2     1  UNL1       -0.0302
     12 C          -2.4658    3.6066   21.4934 C.2     1  UNL1        0.3787
     13 N          -1.6905    3.9655   22.7263 N.2     1  UNL1       -0.0255
     14 C          -0.4854    3.0747   22.7916 C.2     1  UNL1        0.2907
     15 C          -3.7429    4.2477   21.0371 C.ar    1  UNL1        0.1263
     16 C          -5.0589    3.7530   21.5599 C.ar    1  UNL1        0.1484
     17 F          -5.0980    2.6172   22.5389 F       1  UNL1       -0.2039
     18 C          -6.3359    4.3941   21.1037 C.ar    1  UNL1        0.0300
     19 C          -6.2969    5.5299   20.1247 C.ar    1  UNL1        0.0032
     20 C          -4.9809    6.0246   19.6019 C.ar    1  UNL1        0.0118
     21 C          -3.7039    5.3835   20.0582 C.ar    1  UNL1        0.0673
     22 CL         -2.3878    5.8782   19.5354 Cl      1  UNL1       -0.0819
     23 C           3.8469   -1.8743   20.7943 C.ar    1  UNL1        0.0009
     24 C           5.1214   -1.7679   21.5781 C.ar    1  UNL1        0.0001
     25 C           6.2121   -2.7778   21.3769 C.ar    1  UNL1        0.0009
     26 C           6.0283   -3.8941   20.3919 C.ar    1  UNL1        0.0114
     27 C           4.7538   -4.0004   19.6082 C.ar    1  UNL1        0.0577
     28 CL          4.5699   -5.1167   18.6232 Cl      1  UNL1       -0.0822
     29 C           3.6630   -2.9905   19.8094 C.ar    1  UNL1        0.0114
@<TRIPOS>BOND
     1     1     2    2
     2     2     3    1
     3     3     4    2
     4     4     5   ar
     5     5     6   ar
     6     6    23    1
     7    23    24   ar
     8    24    25   ar
     9    25    26   ar
    10    26    27   ar
    11    27    28    1
    12    27    29   ar
    13     6     7   ar
    14     7     8   ar
    15     8     9   ar
    16     9    10    2
    17    10    11    1
    18    11    12    2
    19    12    15    1
    20    15    16   ar
    21    16    17    1
    22    16    18   ar
    23    18    19   ar
    24    19    20   ar
    25    20    21   ar
    26    21    22    1
    27    12    13    1
    28    13    14    2
    29    14     2    1
    30     9     4   ar
    31    14    10    1
    32    29    23   ar
    33    21    15   ar
@<TRIPOS>MOLECULE
*****
 29 33 0 0 0
SMALL
GASTEIGER

@<TRIPOS>ATOM
      1 O           0.7896    4.1105   24.8196 O.2     1  UNL1       -0.2638
      2 C           0.7133    3.1355   23.6822 C.2     1  UNL1        0.3160
      3 N           1.7922    2.1094   23.5003 N.am    1  UNL1       -0.1720
      4 C           1.7158    1.1344   22.3629 C.ar    1  UNL1        0.0775
      5 C           2.7947    0.1084   22.1809 C.ar    1  UNL1        0.0167
      6 C           2.7183   -0.8666   21.0435 C.ar    1  UNL1        0.0013
      7 C           1.5631   -0.8154   20.0881 C.ar    1  UNL1        0.0002
      8 C           0.4842    0.2106   20.2701 C.ar    1  UNL1        0.0051
      9 C           0.5606    1.1856   21.4075 C.ar    1  UNL1        0.0623
     10 C          -0.5183    2.2117   21.5895 C.2     1  UNL1        0.2419
     11 N          -1.7686    2.5019   20.8133 N.2     1  UNL1       -0.0302
     12 C          -2.4651    3.6562   21.4710 C.2     1  UNL1        0.3787
     13 N          -1.6451    4.0794   22.6536 N.2     1  UNL1       -0.0255
     14 C          -0.4420    3.1867   22.7268 C.2     1  UNL1        0.2907
     15 C          -3.7550    4.2782   21.0244 C.ar    1  UNL1        0.1263
     16 C          -3.7587    5.2739   19.9027 C.ar    1  UNL1        0.1484
     17 F          -2.4725    5.6478   19.2274 F       1  UNL1       -0.2039
     18 C          -5.0486    5.8958   19.4561 C.ar    1  UNL1        0.0300
     19 C          -6.3347    5.5220   20.1314 C.ar    1  UNL1        0.0032
     20 C          -6.3310    4.5262   21.2532 C.ar    1  UNL1        0.0118
     21 C          -5.0412    3.9043   21.6997 C.ar    1  UNL1        0.0673
     22 CL         -5.0374    2.9085   22.8215 Cl      1  UNL1       -0.0819
     23 C           3.7972   -1.8927   20.8615 C.ar    1  UNL1        0.0009
     24 C           5.0233   -1.8531   21.7248 C.ar    1  UNL1        0.0001
     25 C           6.1021   -2.8792   21.5428 C.ar    1  UNL1        0.0009
     26 C           5.9550   -3.9450   20.4976 C.ar    1  UNL1        0.0114
     27 C           4.7290   -3.9846   19.6343 C.ar    1  UNL1        0.0577
     28 CL          4.5818   -5.0503   18.5890 Cl      1  UNL1       -0.0822
     29 C           3.6500   -2.9584   19.8163 C.ar    1  UNL1        0.0114
@<TRIPOS>BOND
     1     1     2    2
     2     2     3    1
     3     3     4    2
     4     4     5   ar
     5     5     6   ar
     6     6    23    1
     7    23    24   ar
     8    24    25   ar
     9    25    26   ar
    10    26    27   ar
    11    27    28    1
    12    27    29   ar
    13     6     7   ar
    14     7     8   ar
    15     8     9   ar
    16     9    10    2
    17    10    11    1
    18    11    12    2
    19    12    15    1
    20    15    16   ar
    21    16    17    1
    22    16    18   ar
    23    18    19   ar
    24    19    20   ar
    25    20    21   ar
    26    21    22    1
    27    12    13    1
    28    13    14    2
    29    14     2    1
    30     9     4   ar
    31    14    10    1
    32    29    23   ar
    33    21    15   ar
@<TRIPOS>MOLECULE
*****
 29 33 0 0 0
SMALL
GASTEIGER

@<TRIPOS>ATOM
      1 O           9.2512   -5.3860   20.8444 O.2     1  UNL1       -0.2638
      2 C           8.0858   -4.6861   21.4785 C.2     1  UNL1        0.3160
      3 N           7.1702   -3.8439   20.6405 N.am    1  UNL1       -0.1720
      4 C           6.0048   -3.1441   21.2747 C.ar    1  UNL1        0.0775
      5 C           5.0892   -2.3019   20.4367 C.ar    1  UNL1        0.0167
      6 C           3.9238   -1.6021   21.0709 C.ar    1  UNL1        0.0013
      7 C           3.6741   -1.7445   22.5431 C.ar    1  UNL1        0.0002
      8 C           4.5897   -2.5867   23.3811 C.ar    1  UNL1        0.0051
      9 C           5.7550   -3.2865   22.7469 C.ar    1  UNL1        0.0623
     10 C           6.6707   -4.1288   23.5849 C.2     1  UNL1        0.2419
     11 N           6.6762   -4.4532   25.0494 N.2     1  UNL1       -0.0302
     12 C           7.8450   -5.3535   25.3203 C.2     1  UNL1        0.3787
     13 N           8.5618   -5.5855   24.0233 N.2     1  UNL1       -0.0255
     14 C           7.8361   -4.8286   22.9507 C.2     1  UNL1        0.2907
     15 C           8.2294   -5.9220   26.6542 C.ar    1  UNL1        0.1263
     16 C           8.0999   -7.3948   26.9072 C.ar    1  UNL1        0.1484
     17 F           7.5859   -8.2992   25.8265 F       1  UNL1       -0.2039
     18 C           8.4843   -7.9632   28.2410 C.ar    1  UNL1        0.0300
     19 C           8.9983   -7.0589   29.3217 C.ar    1  UNL1        0.0032
     20 C           9.1278   -5.5861   29.0687 C.ar    1  UNL1        0.0118
     21 C           8.7434   -5.0177   27.7349 C.ar    1  UNL1        0.0673
     22 CL          8.8729   -3.5448   27.4818 Cl      1  UNL1       -0.0819
     23 C           3.0081   -0.7598   20.2329 C.ar    1  UNL1        0.0009
     24 C           3.3092   -0.5429   18.7795 C.ar    1  UNL1        0.0001
     25 C           2.3936    0.2993   17.9415 C.ar    1  UNL1        0.0009
     26 C           1.1769    0.9247   18.5569 C.ar    1  UNL1        0.0114
     27 C           0.8758    0.7078   20.0103 C.ar    1  UNL1        0.0577
     28 CL         -0.3408    1.3331   20.6257 Cl      1  UNL1       -0.0822
     29 C           1.7915   -0.1345   20.8483 C.ar    1  UNL1        0.0114
@<TRIPOS>BOND
     1     1     2    2
     2     2     3    1
     3     3     4    2
     4     4     5   ar
     5     5     6   ar
     6     6    23    1
     7    23    24   ar
     8    24    25   ar
     9    25    26   ar
    10    26    27   ar
    11    27    28    1
    12    27    29   ar
    13     6     7   ar
    14     7     8   ar
    15     8     9   ar
    16     9    10    2
    17    10    11    1
    18    11    12    2
    19    12    15    1
    20    15    16   ar
    21    16    17    1
    22    16    18   ar
    23    18    19   ar
    24    19    20   ar
    25    20    21   ar
    26    21    22    1
    27    12    13    1
    28    13    14    2
    29    14     2    1
    30     9     4   ar
    31    14    10    1
    32    29    23   ar
    33    21    15   ar
@<TRIPOS>MOLECULE
*****
 29 33 0 0 0
SMALL
GASTEIGER

@<TRIPOS>ATOM
      1 O           6.9420   -2.2547   17.2898 O.2     1  UNL1       -0.2638
      2 C           6.4286   -2.2187   18.6988 C.2     1  UNL1        0.3160
      3 N           6.9725   -3.1734   19.7199 N.am    1  UNL1       -0.1720
      4 C           6.4590   -3.1373   21.1289 C.ar    1  UNL1        0.0775
      5 C           7.0029   -4.0921   22.1500 C.ar    1  UNL1        0.0167
      6 C           6.4895   -4.0560   23.5588 C.ar    1  UNL1        0.0013
      7 C           5.4321   -3.0652   23.9467 C.ar    1  UNL1        0.0002
      8 C           4.8883   -2.1105   22.9256 C.ar    1  UNL1        0.0051
      9 C           5.4017   -2.1465   21.5167 C.ar    1  UNL1        0.0623
     10 C           4.8578   -1.1918   20.4955 C.2     1  UNL1        0.2419
     11 N           3.8200   -0.1124   20.5832 N.2     1  UNL1       -0.0302
     12 C           3.6920    0.5187   19.2284 C.2     1  UNL1        0.3787
     13 N           4.6507   -0.1707   18.3035 N.2     1  UNL1       -0.0255
     14 C           5.3713   -1.2279   19.0866 C.2     1  UNL1        0.2907
     15 C           2.7675    1.6420   18.8628 C.ar    1  UNL1        0.1263
     16 C           1.2948    1.3890   18.7323 C.ar    1  UNL1        0.1484
     17 F           0.7465    0.0127   18.9674 F       1  UNL1       -0.2039
     18 C           0.3704    2.5122   18.3667 C.ar    1  UNL1        0.0300
     19 C           0.9187    3.8885   18.1316 C.ar    1  UNL1        0.0032
     20 C           2.3914    4.1415   18.2621 C.ar    1  UNL1        0.0118
     21 C           3.3158    3.0182   18.6277 C.ar    1  UNL1        0.0673
     22 CL          4.7886    3.2712   18.7582 Cl      1  UNL1       -0.0819
     23 C           7.0333   -5.0107   24.5800 C.ar    1  UNL1        0.0009
     24 C           7.8952   -6.1599   24.1482 C.ar    1  UNL1        0.0001
     25 C           8.4391   -7.1147   25.1693 C.ar    1  UNL1        0.0009
     26 C           8.1211   -6.9202   26.6223 C.ar    1  UNL1        0.0114
     27 C           7.2592   -5.7710   27.0541 C.ar    1  UNL1        0.0577
     28 CL          6.9411   -5.5766   28.5070 Cl      1  UNL1       -0.0822
     29 C           6.7153   -4.8163   26.0329 C.ar    1  UNL1        0.0114
@<TRIPOS>BOND
     1     1     2    2
     2     2     3    1
     3     3     4    2
     4     4     5   ar
     5     5     6   ar
     6     6    23    1
     7    23    24   ar
     8    24    25   ar
     9    25    26   ar
    10    26    27   ar
    11    27    28    1
    12    27    29   ar
    13     6     7   ar
    14     7     8   ar
    15     8     9   ar
    16     9    10    2
    17    10    11    1
    18    11    12    2
    19    12    15    1
    20    15    16   ar
    21    16    17    1
    22    16    18   ar
    23    18    19   ar
    24    19    20   ar
    25    20    21   ar
    26    21    22    1
    27    12    13    1
    28    13    14    2
    29    14     2    1
    30     9     4   ar
    31    14    10    1
    32    29    23   ar
    33    21    15   ar
@<TRIPOS>MOLECULE
*****
 29 33 0 0 0
SMALL
GASTEIGER

@<TRIPOS>ATOM
      1 O           8.0491   -6.1278   23.7258 O.2     1  UNL1       -0.2638
      2 C           7.1513   -4.9389   23.9011 C.2     1  UNL1        0.3160
      3 N           6.3907   -4.3942   22.7287 N.am    1  UNL1       -0.1720
      4 C           5.4929   -3.2053   22.9039 C.ar    1  UNL1        0.0775
      5 C           4.7323   -2.6605   21.7315 C.ar    1  UNL1        0.0167
      6 C           3.8346   -1.4717   21.9068 C.ar    1  UNL1        0.0013
      7 C           3.6975   -0.8277   23.2545 C.ar    1  UNL1        0.0002
      8 C           4.4581   -1.3724   24.4270 C.ar    1  UNL1        0.0051
      9 C           5.3558   -2.5612   24.2517 C.ar    1  UNL1        0.0623
     10 C           6.1165   -3.1060   25.4241 C.2     1  UNL1        0.2419
     11 N           6.1814   -2.6841   26.8621 N.2     1  UNL1       -0.0302
     12 C           7.1193   -3.6122   27.5755 C.2     1  UNL1        0.3787
     13 N           7.6340   -4.6077   26.5785 N.2     1  UNL1       -0.0255
     14 C           7.0142   -4.2948   25.2488 C.2     1  UNL1        0.2907
     15 C           7.4793   -3.5549   29.0306 C.ar    1  UNL1        0.1263
     16 C           7.0302   -4.6450   29.9579 C.ar    1  UNL1        0.1484
     17 F           6.2211   -5.7925   29.4301 F       1  UNL1       -0.2039
     18 C           7.3902   -4.5876   31.4129 C.ar    1  UNL1        0.0300
     19 C           8.1993   -3.4401   31.9406 C.ar    1  UNL1        0.0032
     20 C           8.6485   -2.3500   31.0133 C.ar    1  UNL1        0.0118
     21 C           8.2885   -2.4073   29.5584 C.ar    1  UNL1        0.0673
     22 CL          8.7376   -1.3172   28.6310 Cl      1  UNL1       -0.0819
     23 C           3.0739   -0.9269   20.7343 C.ar    1  UNL1        0.0009
     24 C           1.7268   -0.3000   20.9401 C.ar    1  UNL1        0.0001
     25 C           0.9661    0.2448   19.7677 C.ar    1  UNL1        0.0009
     26 C           1.5525    0.1627   18.3895 C.ar    1  UNL1        0.0114
     27 C           2.8996   -0.4642   18.1837 C.ar    1  UNL1        0.0577
     28 CL          3.4860   -0.5463   16.8056 Cl      1  UNL1       -0.0822
     29 C           3.6603   -1.0090   19.3562 C.ar    1  UNL1        0.0114
@<TRIPOS>BOND
     1     1     2    2
     2     2     3    1
     3     3     4    2
     4     4     5   ar
     5     5     6   ar
     6     6    23    1
     7    23    24   ar
     8    24    25   ar
     9    25    26   ar
    10    26    27   ar
    11    27    28    1
    12    27    29   ar
    13     6     7   ar
    14     7     8   ar
    15     8     9   ar
    16     9    10    2
    17    10    11    1
    18    11    12    2
    19    12    15    1
    20    15    16   ar
    21    16    17    1
    22    16    18   ar
    23    18    19   ar
    24    19    20   ar
    25    20    21   ar
    26    21    22    1
    27    12    13    1
    28    13    14    2
    29    14     2    1
    30     9     4   ar
    31    14    10    1
    32    29    23   ar
    33    21    15   ar
@<TRIPOS>MOLECULE
*****
 29 33 0 0 0
SMALL
GASTEIGER

@<TRIPOS>ATOM
      1 O           8.3725   -6.6778   30.0042 O.2     1  UNL1       -0.2638
      2 C           7.7484   -5.5708   29.2073 C.2     1  UNL1        0.3160
      3 N           7.6603   -5.6792   27.7139 N.am    1  UNL1       -0.1720
      4 C           7.0361   -4.5721   26.9170 C.ar    1  UNL1        0.0775
      5 C           6.9480   -4.6806   25.4235 C.ar    1  UNL1        0.0167
      6 C           6.3239   -3.5736   24.6268 C.ar    1  UNL1        0.0013
      7 C           5.7879   -2.3581   25.3234 C.ar    1  UNL1        0.0002
      8 C           5.8760   -2.2496   26.8168 C.ar    1  UNL1        0.0051
      9 C           6.5001   -3.3567   27.6136 C.ar    1  UNL1        0.0623
     10 C           6.5882   -3.2483   29.1072 C.2     1  UNL1        0.2419
     11 N           6.1494   -2.1792   30.0635 N.2     1  UNL1       -0.0302
     12 C           6.5024   -2.6256   31.4514 C.2     1  UNL1        0.3787
     13 N           7.1593   -3.9704   31.3528 N.2     1  UNL1       -0.0255
     14 C           7.2124   -4.3553   29.9040 C.2     1  UNL1        0.2907
     15 C           6.2437   -1.8612   32.7159 C.ar    1  UNL1        0.1263
     16 C           4.8947   -1.9252   33.3684 C.ar    1  UNL1        0.1484
     17 F           3.8041   -2.7537   32.7565 F       1  UNL1       -0.2039
     18 C           4.6361   -1.1609   34.6328 C.ar    1  UNL1        0.0300
     19 C           5.7266   -0.3324   35.2447 C.ar    1  UNL1        0.0032
     20 C           7.0757   -0.2683   34.5922 C.ar    1  UNL1        0.0118
     21 C           7.3342   -1.0327   33.3278 C.ar    1  UNL1        0.0673
     22 CL          8.6834   -0.9686   32.6752 Cl      1  UNL1       -0.0819
     23 C           6.2358   -3.6820   23.1332 C.ar    1  UNL1        0.0009
     24 C           7.4176   -4.1641   22.3452 C.ar    1  UNL1        0.0001
     25 C           7.3295   -4.2725   20.8518 C.ar    1  UNL1        0.0009
     26 C           6.0596   -3.8988   20.1462 C.ar    1  UNL1        0.0114
     27 C           4.8778   -3.4167   20.9342 C.ar    1  UNL1        0.0577
     28 CL          3.6079   -3.0430   20.2288 Cl      1  UNL1       -0.0822
     29 C           4.9659   -3.3083   22.4278 C.ar    1  UNL1        0.0114
@<TRIPOS>BOND
     1     1     2    2
     2     2     3    1
     3     3     4    2
     4     4     5   ar
     5     5     6   ar
     6     6    23    1
     7    23    24   ar
     8    24    25   ar
     9    25    26   ar
    10    26    27   ar
    11    27    28    1
    12    27    29   ar
    13     6     7   ar
    14     7     8   ar
    15     8     9   ar
    16     9    10    2
    17    10    11    1
    18    11    12    2
    19    12    15    1
    20    15    16   ar
    21    16    17    1
    22    16    18   ar
    23    18    19   ar
    24    19    20   ar
    25    20    21   ar
    26    21    22    1
    27    12    13    1
    28    13    14    2
    29    14     2    1
    30     9     4   ar
    31    14    10    1
    32    29    23   ar
    33    21    15   ar
@<TRIPOS>MOLECULE
*****
 29 33 0 0 0
SMALL
GASTEIGER

@<TRIPOS>ATOM
      1 O           8.9031   -4.8689   28.3245 O.2     1  UNL1       -0.2638
      2 C           7.7717   -4.0015   27.8580 C.2     1  UNL1        0.3160
      3 N           7.3479   -4.0310   26.4194 N.am    1  UNL1       -0.1720
      4 C           6.2165   -3.1637   25.9528 C.ar    1  UNL1        0.0775
      5 C           5.7928   -3.1932   24.5143 C.ar    1  UNL1        0.0167
      6 C           4.6614   -2.3259   24.0477 C.ar    1  UNL1        0.0013
      7 C           3.9538   -1.4290   25.0198 C.ar    1  UNL1        0.0002
      8 C           4.3776   -1.3994   26.4584 C.ar    1  UNL1        0.0051
      9 C           5.5089   -2.2668   26.9249 C.ar    1  UNL1        0.0623
     10 C           5.9327   -2.2373   28.3635 C.2     1  UNL1        0.2419
     11 N           5.4272   -1.4605   29.5429 N.2     1  UNL1       -0.0302
     12 C           6.2462   -1.8478   30.7385 C.2     1  UNL1        0.3787
     13 N           7.2579   -2.8639   30.2978 N.2     1  UNL1       -0.0255
     14 C           7.0641   -3.1046   28.8300 C.2     1  UNL1        0.2907
     15 C           6.0824   -1.3129   32.1303 C.ar    1  UNL1        0.1263
     16 C           4.9433   -1.7835   32.9853 C.ar    1  UNL1        0.1484
     17 F           3.9681   -2.7889   32.4486 F       1  UNL1       -0.2039
     18 C           4.7795   -1.2485   34.3770 C.ar    1  UNL1        0.0300
     19 C           5.7547   -0.2431   34.9137 C.ar    1  UNL1        0.0032
     20 C           6.8937    0.2274   34.0587 C.ar    1  UNL1        0.0118
     21 C           7.0576   -0.3075   32.6670 C.ar    1  UNL1        0.0673
     22 CL          8.1967    0.1630   31.8119 Cl      1  UNL1       -0.0819
     23 C           4.2376   -2.3554   22.6091 C.ar    1  UNL1        0.0009
     24 C           3.3849   -1.2523   22.0557 C.ar    1  UNL1        0.0001
     25 C           2.9611   -1.2818   20.6171 C.ar    1  UNL1        0.0009
     26 C           3.3899   -2.4144   19.7319 C.ar    1  UNL1        0.0114
     27 C           4.2426   -3.5174   20.2854 C.ar    1  UNL1        0.0577
     28 CL          4.6714   -4.6499   19.4003 Cl      1  UNL1       -0.0822
     29 C           4.6664   -3.4879   21.7240 C.ar    1  UNL1        0.0114
@<TRIPOS>BOND
     1     1     2    2
     2     2     3    1
     3     3     4    2
     4     4     5   ar
     5     5     6   ar
     6     6    23    1
     7    23    24   ar
     8    24    25   ar
     9    25    26   ar
    10    26    27   ar
    11    27    28    1
    12    27    29   ar
    13     6     7   ar
    14     7     8   ar
    15     8     9   ar
    16     9    10    2
    17    10    11    1
    18    11    12    2
    19    12    15    1
    20    15    16   ar
    21    16    17    1
    22    16    18   ar
    23    18    19   ar
    24    19    20   ar
    25    20    21   ar
    26    21    22    1
    27    12    13    1
    28    13    14    2
    29    14     2    1
    30     9     4   ar
    31    14    10    1
    32    29    23   ar
    33    21    15   ar
@<TRIPOS>MOLECULE
*****
 29 33 0 0 0
SMALL
GASTEIGER

@<TRIPOS>ATOM
      1 O           2.2082    0.8283   27.6551 O.2     1  UNL1       -0.2638
      2 C           1.7844    0.9629   26.2224 C.2     1  UNL1        0.3160
      3 N           2.5486    0.2531   25.1444 N.am    1  UNL1       -0.1720
      4 C           2.1247    0.3877   23.7118 C.ar    1  UNL1        0.0775
      5 C           2.8889   -0.3221   22.6337 C.ar    1  UNL1        0.0167
      6 C           2.4650   -0.1875   21.2012 C.ar    1  UNL1        0.0013
      7 C           1.2770    0.6569   20.8467 C.ar    1  UNL1        0.0002
      8 C           0.5128    1.3666   21.9248 C.ar    1  UNL1        0.0051
      9 C           0.9367    1.2320   23.3573 C.ar    1  UNL1        0.0623
     10 C           0.1725    1.9418   24.4354 C.2     1  UNL1        0.2419
     11 N          -1.0304    2.8367   24.3900 N.2     1  UNL1       -0.0302
     12 C          -1.3500    3.2553   25.7946 C.2     1  UNL1        0.3787
     13 N          -0.3446    2.6190   26.7080 N.2     1  UNL1       -0.0255
     14 C           0.5964    1.8072   25.8680 C.2     1  UNL1        0.2907
     15 C          -2.4772    4.1526   26.2123 C.ar    1  UNL1        0.1263
     16 C          -3.8557    3.9296   25.6649 C.ar    1  UNL1        0.1484
     17 F          -4.1072    2.8093   24.6996 F       1  UNL1       -0.2039
     18 C          -4.9828    4.8268   26.0826 C.ar    1  UNL1        0.0300
     19 C          -4.7313    5.9471   27.0479 C.ar    1  UNL1        0.0032
     20 C          -3.3527    6.1702   27.5953 C.ar    1  UNL1        0.0118
     21 C          -2.2256    5.2729   27.1776 C.ar    1  UNL1        0.0673
     22 CL         -0.8470    5.4959   27.7250 Cl      1  UNL1       -0.0819
     23 C           3.2292   -0.8973   20.1231 C.ar    1  UNL1        0.0009
     24 C           3.9713   -0.1077   19.0858 C.ar    1  UNL1        0.0001
     25 C           4.7354   -0.8174   18.0077 C.ar    1  UNL1        0.0009
     26 C           4.7576   -2.3167   17.9668 C.ar    1  UNL1        0.0114
     27 C           4.0155   -3.1063   19.0041 C.ar    1  UNL1        0.0577
     28 CL          4.0376   -4.6055   18.9633 Cl      1  UNL1       -0.0822
     29 C           3.2513   -2.3965   20.0823 C.ar    1  UNL1        0.0114
@<TRIPOS>BOND
     1     1     2    2
     2     2     3    1
     3     3     4    2
     4     4     5   ar
     5     5     6   ar
     6     6    23    1
     7    23    24   ar
     8    24    25   ar
     9    25    26   ar
    10    26    27   ar
    11    27    28    1
    12    27    29   ar
    13     6     7   ar
    14     7     8   ar
    15     8     9   ar
    16     9    10    2
    17    10    11    1
    18    11    12    2
    19    12    15    1
    20    15    16   ar
    21    16    17    1
    22    16    18   ar
    23    18    19   ar
    24    19    20   ar
    25    20    21   ar
    26    21    22    1
    27    12    13    1
    28    13    14    2
    29    14     2    1
    30     9     4   ar
    31    14    10    1
    32    29    23   ar
    33    21    15   ar
