@<TRIPOS>MOLECULE
*****
 16 17 0 0 0
SMALL
GASTEIGER

@<TRIPOS>ATOM
      1 C         -10.1392  -19.6908   22.2706 C.ar    1  UNL1        0.1387
      2 C         -10.8953  -19.7440   20.9763 C.ar    1  UNL1        0.0369
      3 C         -10.1624  -19.6167   19.6737 C.ar    1  UNL1        0.0032
      4 C          -8.6734  -19.4362   19.6655 C.ar    1  UNL1        0.0033
      5 C          -7.9173  -19.3830   20.9599 C.ar    1  UNL1        0.0402
      6 C          -8.6502  -19.5103   22.2624 C.ar    1  UNL1        0.0400
      7 C          -6.4281  -19.2025   20.9517 C.ar    1  UNL1        0.1770
      8 C          -5.4917  -19.5504   22.0707 C.ar    1  UNL1        0.0642
      9 C          -4.0989  -19.2053   21.6338 C.ar    1  UNL1        0.1438
     10 N          -4.1745  -18.6442   20.2447 N.ar    1  UNL1       -0.0753
     11 O          -5.6140  -18.6424   19.8232 O.2     1  UNL1       -0.3533
     12 O         -10.8721  -19.8182   23.5732 O.3     1  UNL1       -0.4755
     13 C         -11.5120  -18.6123   24.1947 C.3     1  UNL1        0.2054
     14 C         -12.8173  -18.0982   23.6636 C.3     1  UNL1        0.0473
     15 C         -11.5541  -16.2499   22.3452 C.3     1  UNL1        0.0001
     16 C         -12.8358  -16.9348   22.7169 C.3     1  UNL1        0.0038
@<TRIPOS>BOND
     1    15    16    1
     2    16    14    1
     3    14    13    1
     4    13    12    1
     5    12     1    1
     6     1     2   ar
     7     2     3   ar
     8     3     4   ar
     9     4     5   ar
    10     5     7    1
    11     7     8   ar
    12     8     9   ar
    13     9    10   ar
    14    10    11   ar
    15     5     6   ar
    16     6     1   ar
    17    11     7   ar
@<TRIPOS>MOLECULE
*****
 16 17 0 0 0
SMALL
GASTEIGER

@<TRIPOS>ATOM
      1 C          -8.3700  -15.8851   24.7481 C.ar    1  UNL1        0.1387
      2 C          -8.1823  -15.5439   26.1966 C.ar    1  UNL1        0.0369
      3 C          -6.7997  -15.4143   26.7636 C.ar    1  UNL1        0.0032
      4 C          -5.6047  -15.6258   25.8820 C.ar    1  UNL1        0.0033
      5 C          -5.7924  -15.9669   24.4335 C.ar    1  UNL1        0.0402
      6 C          -7.1750  -16.0966   23.8665 C.ar    1  UNL1        0.0400
      7 C          -4.5973  -16.1785   23.5518 C.ar    1  UNL1        0.1770
      8 C          -3.8400  -17.4626   23.3864 C.ar    1  UNL1        0.0642
      9 C          -2.7245  -17.2209   22.4132 C.ar    1  UNL1        0.1438
     10 N          -2.7924  -15.7872   21.9771 N.ar    1  UNL1       -0.0753
     11 O          -3.9499  -15.1430   22.6808 O.2     1  UNL1       -0.3533
     12 O          -9.7527  -16.0147   24.1811 O.3     1  UNL1       -0.4755
     13 C         -10.3157  -17.3721   23.8803 C.3     1  UNL1        0.2054
     14 C          -9.7980  -18.5770   24.6084 C.3     1  UNL1        0.0473
     15 C          -8.3780  -19.7547   22.7790 C.3     1  UNL1        0.0001
     16 C          -9.4320  -19.8150   23.8446 C.3     1  UNL1        0.0038
@<TRIPOS>BOND
     1    15    16    1
     2    16    14    1
     3    14    13    1
     4    13    12    1
     5    12     1    1
     6     1     2   ar
     7     2     3   ar
     8     3     4   ar
     9     4     5   ar
    10     5     7    1
    11     7     8   ar
    12     8     9   ar
    13     9    10   ar
    14    10    11   ar
    15     5     6   ar
    16     6     1   ar
    17    11     7   ar
@<TRIPOS>MOLECULE
*****
 16 17 0 0 0
SMALL
GASTEIGER

@<TRIPOS>ATOM
      1 C         -10.5864  -17.6995   20.9487 C.ar    1  UNL1        0.1387
      2 C         -10.8577  -18.7030   19.8673 C.ar    1  UNL1        0.0369
      3 C          -9.7708  -19.6342   19.4185 C.ar    1  UNL1        0.0032
      4 C          -8.4126  -19.5619   20.0510 C.ar    1  UNL1        0.0033
      5 C          -8.1414  -18.5585   21.1324 C.ar    1  UNL1        0.0402
      6 C          -9.2283  -17.6273   21.5812 C.ar    1  UNL1        0.0400
      7 C          -6.7831  -18.4862   21.7649 C.ar    1  UNL1        0.1770
      8 C          -5.7533  -19.5769   21.7691 C.ar    1  UNL1        0.0642
      9 C          -4.5500  -19.0754   22.5111 C.ar    1  UNL1        0.1438
     10 N          -4.8362  -17.6747   22.9655 N.ar    1  UNL1       -0.0753
     11 O          -6.2163  -17.3106   22.5043 O.2     1  UNL1       -0.3533
     12 O         -11.6733  -16.7683   21.3976 O.3     1  UNL1       -0.4755
     13 C         -12.2114  -16.8617   22.7947 C.3     1  UNL1        0.2054
     14 C         -12.4836  -18.2044   23.4054 C.3     1  UNL1        0.0473
     15 C         -10.6364  -19.9330   23.9968 C.3     1  UNL1        0.0001
     16 C         -11.5192  -18.7876   24.3953 C.3     1  UNL1        0.0038
@<TRIPOS>BOND
     1    15    16    1
     2    16    14    1
     3    14    13    1
     4    13    12    1
     5    12     1    1
     6     1     2   ar
     7     2     3   ar
     8     3     4   ar
     9     4     5   ar
    10     5     7    1
    11     7     8   ar
    12     8     9   ar
    13     9    10   ar
    14    10    11   ar
    15     5     6   ar
    16     6     1   ar
    17    11     7   ar
@<TRIPOS>MOLECULE
*****
 16 17 0 0 0
SMALL
GASTEIGER

@<TRIPOS>ATOM
      1 C         -11.3328  -16.9077   23.0435 C.ar    1  UNL1        0.1387
      2 C         -11.7323  -18.2633   23.5463 C.ar    1  UNL1        0.0369
      3 C         -10.9250  -18.9335   24.6182 C.ar    1  UNL1        0.0032
      4 C          -9.7182  -18.2481   25.1874 C.ar    1  UNL1        0.0033
      5 C          -9.3188  -16.8926   24.6846 C.ar    1  UNL1        0.0402
      6 C         -10.1261  -16.2224   23.6127 C.ar    1  UNL1        0.0400
      7 C          -8.1120  -16.2071   25.2538 C.ar    1  UNL1        0.1770
      8 C          -7.8070  -16.0247   26.7111 C.ar    1  UNL1        0.0642
      9 C          -6.5049  -15.2886   26.8236 C.ar    1  UNL1        0.1438
     10 N          -6.0051  -15.0161   25.4357 N.ar    1  UNL1       -0.0753
     11 O          -6.9984  -15.5838   24.4656 O.2     1  UNL1       -0.3533
     12 O         -12.1401  -16.2375   21.9715 O.3     1  UNL1       -0.4755
     13 C         -12.3209  -16.9054   20.6406 C.3     1  UNL1        0.2054
     14 C         -11.1277  -17.4206   19.8919 C.3     1  UNL1        0.0473
     15 C          -9.4601  -19.2430   20.6972 C.3     1  UNL1        0.0001
     16 C         -10.7365  -18.8643   20.0062 C.3     1  UNL1        0.0038
@<TRIPOS>BOND
     1    15    16    1
     2    16    14    1
     3    14    13    1
     4    13    12    1
     5    12     1    1
     6     1     2   ar
     7     2     3   ar
     8     3     4   ar
     9     4     5   ar
    10     5     7    1
    11     7     8   ar
    12     8     9   ar
    13     9    10   ar
    14    10    11   ar
    15     5     6   ar
    16     6     1   ar
    17    11     7   ar
@<TRIPOS>MOLECULE
*****
 16 17 0 0 0
SMALL
GASTEIGER

@<TRIPOS>ATOM
      1 C          -7.5990  -19.0440   20.6654 C.ar    1  UNL1        0.1387
      2 C          -7.9803  -19.6338   19.3401 C.ar    1  UNL1        0.0369
      3 C          -9.4217  -19.9067   19.0274 C.ar    1  UNL1        0.0032
      4 C         -10.4819  -19.5897   20.0401 C.ar    1  UNL1        0.0033
      5 C         -10.1006  -18.9999   21.3654 C.ar    1  UNL1        0.0402
      6 C          -8.6591  -18.7270   21.6781 C.ar    1  UNL1        0.0400
      7 C         -11.1607  -18.6828   22.3782 C.ar    1  UNL1        0.1770
      8 C         -12.4553  -17.9751   22.1074 C.ar    1  UNL1        0.0642
      9 C         -13.2071  -17.8727   23.4013 C.ar    1  UNL1        0.1438
     10 N         -12.3772  -18.5172   24.4718 N.ar    1  UNL1       -0.0753
     11 O         -11.1125  -19.0179   23.8395 O.2     1  UNL1       -0.3533
     12 O          -6.1575  -18.7711   20.9781 O.3     1  UNL1       -0.4755
     13 C          -5.1807  -19.9062   21.0632 C.3     1  UNL1        0.2054
     14 C          -3.8704  -19.8241   20.3377 C.3     1  UNL1        0.0473
     15 C          -2.1474  -18.3507   19.0686 C.3     1  UNL1        0.0001
     16 C          -3.5623  -18.6339   19.4782 C.3     1  UNL1        0.0038
@<TRIPOS>BOND
     1    15    16    1
     2    16    14    1
     3    14    13    1
     4    13    12    1
     5    12     1    1
     6     1     2   ar
     7     2     3   ar
     8     3     4   ar
     9     4     5   ar
    10     5     7    1
    11     7     8   ar
    12     8     9   ar
    13     9    10   ar
    14    10    11   ar
    15     5     6   ar
    16     6     1   ar
    17    11     7   ar
@<TRIPOS>MOLECULE
*****
 16 17 0 0 0
SMALL
GASTEIGER

@<TRIPOS>ATOM
      1 C          -4.8076  -18.6994   22.4411 C.ar    1  UNL1        0.1387
      2 C          -4.0516  -17.6847   23.2465 C.ar    1  UNL1        0.0369
      3 C          -4.7683  -16.5002   23.8237 C.ar    1  UNL1        0.0032
      4 C          -6.2411  -16.3304   23.5956 C.ar    1  UNL1        0.0033
      5 C          -6.9971  -17.3452   22.7902 C.ar    1  UNL1        0.0402
      6 C          -6.2804  -18.5297   22.2130 C.ar    1  UNL1        0.0400
      7 C          -8.4700  -17.1755   22.5621 C.ar    1  UNL1        0.1770
      8 C          -9.5026  -16.9219   23.6201 C.ar    1  UNL1        0.0642
      9 C         -10.8396  -16.8192   22.9479 C.ar    1  UNL1        0.1438
     10 N         -10.6332  -17.0094   21.4743 N.ar    1  UNL1       -0.0753
     11 O          -9.1688  -17.2296   21.2359 O.2     1  UNL1       -0.3533
     12 O          -4.0909  -19.8839   21.8638 O.3     1  UNL1       -0.4755
     13 C          -3.9632  -20.0317   20.3766 C.3     1  UNL1        0.2054
     14 C          -3.8106  -18.8152   19.5124 C.3     1  UNL1        0.0473
     15 C          -1.8300  -17.2802   20.1991 C.3     1  UNL1        0.0001
     16 C          -2.4459  -18.2552   19.2399 C.3     1  UNL1        0.0038
@<TRIPOS>BOND
     1    15    16    1
     2    16    14    1
     3    14    13    1
     4    13    12    1
     5    12     1    1
     6     1     2   ar
     7     2     3   ar
     8     3     4   ar
     9     4     5   ar
    10     5     7    1
    11     7     8   ar
    12     8     9   ar
    13     9    10   ar
    14    10    11   ar
    15     5     6   ar
    16     6     1   ar
    17    11     7   ar
@<TRIPOS>MOLECULE
*****
 16 17 0 0 0
SMALL
GASTEIGER

@<TRIPOS>ATOM
      1 C          -9.2687  -18.0815   21.9255 C.ar    1  UNL1        0.1387
      2 C         -10.0933  -18.7451   20.8626 C.ar    1  UNL1        0.0369
      3 C          -9.4219  -19.5120   19.7621 C.ar    1  UNL1        0.0032
      4 C          -7.9260  -19.6152   19.7244 C.ar    1  UNL1        0.0033
      5 C          -7.1014  -18.9516   20.7872 C.ar    1  UNL1        0.0402
      6 C          -7.7728  -18.1847   21.8878 C.ar    1  UNL1        0.0400
      7 C          -5.6054  -19.0548   20.7496 C.ar    1  UNL1        0.1770
      8 C          -4.7271  -19.5445   21.8626 C.ar    1  UNL1        0.0642
      9 C          -3.3040  -19.4788   21.3933 C.ar    1  UNL1        0.1438
     10 N          -3.3027  -18.9485   19.9901 N.ar    1  UNL1       -0.0753
     11 O          -4.7251  -18.6865   19.5923 O.2     1  UNL1       -0.3533
     12 O          -9.9401  -17.3146   23.0260 O.3     1  UNL1       -0.4755
     13 C          -9.2318  -17.0998   24.3306 C.3     1  UNL1        0.2054
     14 C          -8.9379  -15.7071   24.8041 C.3     1  UNL1        0.0473
     15 C          -8.3298  -16.5719   27.1774 C.3     1  UNL1        0.0001
     16 C          -8.2892  -15.4901   26.1391 C.3     1  UNL1        0.0038
@<TRIPOS>BOND
     1    15    16    1
     2    16    14    1
     3    14    13    1
     4    13    12    1
     5    12     1    1
     6     1     2   ar
     7     2     3   ar
     8     3     4   ar
     9     4     5   ar
    10     5     7    1
    11     7     8   ar
    12     8     9   ar
    13     9    10   ar
    14    10    11   ar
    15     5     6   ar
    16     6     1   ar
    17    11     7   ar
@<TRIPOS>MOLECULE
*****
 16 17 0 0 0
SMALL
GASTEIGER

@<TRIPOS>ATOM
      1 C          -9.8726  -18.2523   23.0868 C.ar    1  UNL1        0.1387
      2 C          -9.7283  -16.9245   23.7696 C.ar    1  UNL1        0.0369
      3 C          -8.3941  -16.2399   23.8039 C.ar    1  UNL1        0.0032
      4 C          -7.2042  -16.8831   23.1556 C.ar    1  UNL1        0.0033
      5 C          -7.3485  -18.2108   22.4728 C.ar    1  UNL1        0.0402
      6 C          -8.6827  -18.8954   22.4385 C.ar    1  UNL1        0.0400
      7 C          -6.1585  -18.8541   21.8244 C.ar    1  UNL1        0.1770
      8 C          -6.1210  -19.4564   20.4511 C.ar    1  UNL1        0.0642
      9 C          -4.7366  -19.9825   20.2134 C.ar    1  UNL1        0.1438
     10 N          -3.9184  -19.7053   21.4398 N.ar    1  UNL1       -0.0753
     11 O          -4.7973  -19.0079   22.4354 O.2     1  UNL1       -0.3533
     12 O         -11.2068  -18.9369   23.0525 O.3     1  UNL1       -0.4755
     13 C         -12.4671  -18.1236   23.0448 C.3     1  UNL1        0.2054
     14 C         -13.0381  -17.6375   21.7456 C.3     1  UNL1        0.0473
     15 C         -11.3344  -16.9059   19.9257 C.3     1  UNL1        0.0001
     16 C         -12.3415  -16.5522   20.9796 C.3     1  UNL1        0.0038
@<TRIPOS>BOND
     1    15    16    1
     2    16    14    1
     3    14    13    1
     4    13    12    1
     5    12     1    1
     6     1     2   ar
     7     2     3   ar
     8     3     4   ar
     9     4     5   ar
    10     5     7    1
    11     7     8   ar
    12     8     9   ar
    13     9    10   ar
    14    10    11   ar
    15     5     6   ar
    16     6     1   ar
    17    11     7   ar
@<TRIPOS>MOLECULE
*****
 16 17 0 0 0
SMALL
GASTEIGER

@<TRIPOS>ATOM
      1 C          -9.8504  -17.8427   20.9503 C.ar    1  UNL1        0.1387
      2 C          -9.9905  -19.2737   21.3775 C.ar    1  UNL1        0.0369
      3 C          -9.2542  -19.7711   22.5860 C.ar    1  UNL1        0.0032
      4 C          -8.3778  -18.8376   23.3673 C.ar    1  UNL1        0.0033
      5 C          -8.2377  -17.4066   22.9400 C.ar    1  UNL1        0.0402
      6 C          -8.9740  -16.9091   21.7315 C.ar    1  UNL1        0.0400
      7 C          -7.3613  -16.4729   23.7212 C.ar    1  UNL1        0.1770
      8 C          -7.6781  -15.8817   25.0629 C.ar    1  UNL1        0.0642
      9 C          -6.5269  -15.0100   25.4689 C.ar    1  UNL1        0.1438
     10 N          -5.4985  -15.0625   24.3781 N.ar    1  UNL1       -0.0753
     11 O          -6.0142  -15.9667   23.2980 O.2     1  UNL1       -0.3533
     12 O         -10.5866  -17.3453   19.7418 O.3     1  UNL1       -0.4755
     13 C         -11.7871  -16.4611   19.9062 C.3     1  UNL1        0.2054
     14 C         -12.4837  -16.3810   21.2322 C.3     1  UNL1        0.0473
     15 C         -12.9742  -17.9102   23.2746 C.3     1  UNL1        0.0001
     16 C         -13.1303  -17.6028   21.8147 C.3     1  UNL1        0.0038
@<TRIPOS>BOND
     1    15    16    1
     2    16    14    1
     3    14    13    1
     4    13    12    1
     5    12     1    1
     6     1     2   ar
     7     2     3   ar
     8     3     4   ar
     9     4     5   ar
    10     5     7    1
    11     7     8   ar
    12     8     9   ar
    13     9    10   ar
    14    10    11   ar
    15     5     6   ar
    16     6     1   ar
    17    11     7   ar
