@<TRIPOS>MOLECULE
*****
 38 41 0 0 0
SMALL
GASTEIGER

@<TRIPOS>ATOM
      1 C           6.9976   -9.8432   27.3790 C.3     1  UNL1        0.0725
      2 C           6.4019   -8.7820   26.5020 C.3     1  UNL1        0.0239
      3 C           7.2278   -7.6000   26.0885 C.3     1  UNL1        0.0237
      4 C           8.6492   -7.4791   26.5520 C.2     1  UNL1       -0.0441
      5 C           9.4749   -6.2972   26.1385 C.2     1  UNL1       -0.0084
      6 C           9.2449   -8.5403   27.4290 C.3     1  UNL1        0.0237
      7 C           8.4192   -9.7223   27.8425 C.3     1  UNL1        0.0239
      8 C           8.8792   -5.2360   25.2615 C.ar    1  UNL1        0.0024
      9 C           8.5934   -3.8739   25.8210 C.ar    1  UNL1        0.0002
     10 C           7.9977   -2.8128   24.9440 C.ar    1  UNL1        0.0031
     11 C           7.6878   -3.1137   23.5076 C.ar    1  UNL1        0.0376
     12 C           7.9736   -4.4759   22.9480 C.ar    1  UNL1        0.1472
     13 C           8.5693   -5.5370   23.8250 C.ar    1  UNL1        0.0375
     14 O           7.6637   -4.7768   21.5116 O.3     1  UNL1       -0.4361
     15 C           6.6894   -3.9198   20.7591 C.ar    1  UNL1        0.2297
     16 C           7.1889   -2.8213   19.8683 C.ar    1  UNL1        0.0581
     17 C           6.2146   -1.9643   19.1158 C.ar    1  UNL1        0.0102
     18 C           4.7407   -2.2059   19.2541 C.ar    1  UNL1        0.0907
     19 C           4.2411   -3.3045   20.1448 C.ar    1  UNL1        0.1059
     20 N           5.2154   -4.1614   20.8974 N.ar    1  UNL1       -0.2099
     21 C           3.7664   -1.3489   18.5015 C.3     1  UNL1        0.4200
     22 F           2.7920   -0.4920   17.7490 F       1  UNL1       -0.1658
     23 F           4.7957   -1.1143   17.4360 F       1  UNL1       -0.1658
     24 F           2.7370   -1.5836   19.5671 F       1  UNL1       -0.1658
     25 C           4.8007  -11.2205   27.2167 C.2     1  UNL1        0.2473
     26 O           4.2552  -10.2338   26.2274 O.2     1  UNL1       -0.2701
     27 N           6.1719  -11.0252   27.7925 N.am    1  UNL1       -0.3024
     28 H           6.5299  -11.6728   28.4418 H       1  UNL1        0.1497
     29 C           1.2525  -13.3538   30.3566 C.3     1  UNL1        0.0339
     30 C           2.2008  -13.4692   29.2002 C.ar    1  UNL1        0.0095
     31 C           3.0266  -12.2872   28.7866 C.ar    1  UNL1        0.0046
     32 C           3.9749  -12.4025   27.6302 C.ar    1  UNL1        0.0723
     33 C           4.0976  -13.6998   26.8874 C.ar    1  UNL1        0.1047
     34 N           3.2719  -14.8818   27.3009 N.ar    1  UNL1       -0.2298
     35 C           2.3235  -14.7665   28.4573 C.ar    1  UNL1        0.1213
     36 N           1.4978  -15.9485   28.8709 N.pl3   1  UNL1       -0.3429
     37 H           1.5783  -16.8000   28.3833 H       1  UNL1        0.1437
     38 H           0.8753  -15.8729   29.6299 H       1  UNL1        0.1437
@<TRIPOS>BOND
     1    29    30    1
     2    30    31   ar
     3    31    32   ar
     4    32    25    1
     5    25    26    2
     6    25    27   am
     7    27     1    1
     8     1     2    1
     9     2     3    1
    10     3     4    1
    11     4     5    2
    12     5     8    1
    13     8     9   ar
    14     9    10   ar
    15    10    11   ar
    16    11    12   ar
    17    12    14    1
    18    14    15    1
    19    15    16   ar
    20    16    17   ar
    21    17    18   ar
    22    18    21    1
    23    21    22    1
    24    21    23    1
    25    21    24    1
    26    18    19   ar
    27    19    20   ar
    28    12    13   ar
    29     4     6    1
    30     6     7    1
    31    32    33   ar
    32    33    34   ar
    33    34    35   ar
    34    35    36    1
    35    35    30   ar
    36     7     1    1
    37    13     8   ar
    38    20    15   ar
    39    27    28    1
    40    36    37    1
    41    36    38    1
@<TRIPOS>MOLECULE
*****
 38 41 0 0 0
SMALL
GASTEIGER

@<TRIPOS>ATOM
      1 C           0.3425    1.0836   19.8503 C.3     1  UNL1        0.0725
      2 C           0.8378   -0.2048   20.4375 C.3     1  UNL1        0.0239
      3 C           2.0977   -0.8309   19.9169 C.3     1  UNL1        0.0237
      4 C           2.8622   -0.1685   18.8094 C.2     1  UNL1       -0.0441
      5 C           4.1220   -0.7945   18.2889 C.2     1  UNL1       -0.0084
      6 C           2.3669    1.1199   18.2222 C.3     1  UNL1        0.0237
      7 C           1.1071    1.7459   18.7427 C.3     1  UNL1        0.0239
      8 C           4.6173   -2.0829   18.8760 C.ar    1  UNL1        0.0024
      9 C           3.8894   -3.3640   18.5949 C.ar    1  UNL1        0.0002
     10 C           4.3847   -4.6524   19.1820 C.ar    1  UNL1        0.0031
     11 C           5.6079   -4.6597   20.0502 C.ar    1  UNL1        0.0376
     12 C           6.3358   -3.3786   20.3314 C.ar    1  UNL1        0.1472
     13 C           5.8405   -2.0902   19.7443 C.ar    1  UNL1        0.0375
     14 O           7.5589   -3.3859   21.1996 O.3     1  UNL1       -0.4361
     15 C           7.7410   -4.4608   22.2298 C.ar    1  UNL1        0.2297
     16 C           7.1517   -4.2947   23.5992 C.ar    1  UNL1        0.0581
     17 C           7.3337   -5.3696   24.6294 C.ar    1  UNL1        0.0102
     18 C           8.1050   -6.6106   24.2904 C.ar    1  UNL1        0.0907
     19 C           8.6943   -6.7767   22.9211 C.ar    1  UNL1        0.1059
     20 N           8.5123   -5.7018   21.8908 N.ar    1  UNL1       -0.2099
     21 C           8.2870   -7.6855   25.3207 C.3     1  UNL1        0.4200
     22 F           8.4691   -8.7604   26.3510 F       1  UNL1       -0.1658
     23 F           7.0385   -7.2302   26.0163 F       1  UNL1       -0.1658
     24 F           9.5356   -8.1408   24.6251 F       1  UNL1       -0.1658
     25 C          -0.8429    2.8244   21.3717 C.2     1  UNL1        0.2473
     26 O           0.4914    3.3131   21.8521 O.2     1  UNL1       -0.2701
     27 N          -0.9173    1.7096   20.3708 N.am    1  UNL1       -0.3024
     28 H          -1.7931    1.3888   20.0555 H       1  UNL1        0.1497
     29 C          -5.8660    4.0054   20.7609 C.3     1  UNL1        0.0339
     30 C          -4.6143    4.0409   21.5867 C.ar    1  UNL1        0.0095
     31 C          -3.3545    3.4149   21.0663 C.ar    1  UNL1        0.0046
     32 C          -2.1028    3.4504   21.8921 C.ar    1  UNL1        0.0723
     33 C          -2.1109    4.1119   23.2383 C.ar    1  UNL1        0.1047
     34 N          -3.3708    4.7379   23.7587 N.ar    1  UNL1       -0.2298
     35 C          -4.6225    4.7024   22.9329 C.ar    1  UNL1        0.1213
     36 N          -5.8824    5.3284   23.4534 N.pl3   1  UNL1       -0.3429
     37 H          -5.8877    5.7626   24.3369 H       1  UNL1        0.1437
     38 H          -6.7039    5.3052   22.9114 H       1  UNL1        0.1437
@<TRIPOS>BOND
     1    29    30    1
     2    30    31   ar
     3    31    32   ar
     4    32    25    1
     5    25    26    2
     6    25    27   am
     7    27     1    1
     8     1     2    1
     9     2     3    1
    10     3     4    1
    11     4     5    2
    12     5     8    1
    13     8     9   ar
    14     9    10   ar
    15    10    11   ar
    16    11    12   ar
    17    12    14    1
    18    14    15    1
    19    15    16   ar
    20    16    17   ar
    21    17    18   ar
    22    18    21    1
    23    21    22    1
    24    21    23    1
    25    21    24    1
    26    18    19   ar
    27    19    20   ar
    28    12    13   ar
    29     4     6    1
    30     6     7    1
    31    32    33   ar
    32    33    34   ar
    33    34    35   ar
    34    35    36    1
    35    35    30   ar
    36     7     1    1
    37    13     8   ar
    38    20    15   ar
    39    27    28    1
    40    36    37    1
    41    36    38    1
@<TRIPOS>MOLECULE
*****
 38 41 0 0 0
SMALL
GASTEIGER

@<TRIPOS>ATOM
      1 C           6.4309   -3.8409   26.0312 C.3     1  UNL1        0.0725
      2 C           6.2375   -2.8460   24.9255 C.3     1  UNL1        0.0239
      3 C           6.7573   -3.1428   23.5500 C.3     1  UNL1        0.0237
      4 C           7.4705   -4.4345   23.2804 C.2     1  UNL1       -0.0441
      5 C           7.9902   -4.7313   21.9050 C.2     1  UNL1       -0.0084
      6 C           7.6639   -5.4295   24.3861 C.3     1  UNL1        0.0237
      7 C           7.1441   -5.1327   25.7615 C.3     1  UNL1        0.0239
      8 C           7.7968   -3.7364   20.7992 C.ar    1  UNL1        0.0024
      9 C           8.8825   -2.7529   20.4768 C.ar    1  UNL1        0.0002
     10 C           8.6891   -1.7580   19.3711 C.ar    1  UNL1        0.0031
     11 C           7.4099   -1.7465   18.5878 C.ar    1  UNL1        0.0376
     12 C           6.3241   -2.7299   18.9102 C.ar    1  UNL1        0.1472
     13 C           6.5176   -3.7249   20.0159 C.ar    1  UNL1        0.0375
     14 O           5.0450   -2.7184   18.1269 O.3     1  UNL1       -0.4361
     15 C           3.9257   -1.8057   18.5319 C.ar    1  UNL1        0.2297
     16 C           3.1646   -2.0681   19.7976 C.ar    1  UNL1        0.0581
     17 C           2.0453   -1.1554   20.2026 C.ar    1  UNL1        0.0102
     18 C           1.6870    0.0197   19.3420 C.ar    1  UNL1        0.0907
     19 C           2.4481    0.2822   18.0764 C.ar    1  UNL1        0.1059
     20 N           3.5674   -0.6306   17.6714 N.ar    1  UNL1       -0.2099
     21 C           0.5677    0.9325   19.7471 C.3     1  UNL1        0.4200
     22 F          -0.5516    1.8452   20.1522 F       1  UNL1       -0.1658
     23 F           1.0256    1.9423   18.7369 F       1  UNL1       -0.1658
     24 F           0.1098   -0.0774   20.7573 F       1  UNL1       -0.1658
     25 C           6.8359   -3.0062   28.4579 C.2     1  UNL1        0.2473
     26 O           8.2805   -2.7651   28.1339 O.2     1  UNL1       -0.2701
     27 N           5.9111   -3.5441   27.4066 N.am    1  UNL1       -0.3024
     28 H           4.9630   -3.7024   27.6193 H       1  UNL1        0.1497
     29 C           4.1163    0.0272   31.6832 C.3     1  UNL1        0.0339
     30 C           4.9563   -1.1927   31.4460 C.ar    1  UNL1        0.0095
     31 C           5.4761   -1.4895   30.0706 C.ar    1  UNL1        0.0046
     32 C           6.3161   -2.7094   29.8334 C.ar    1  UNL1        0.0723
     33 C           6.6363   -3.6325   30.9715 C.ar    1  UNL1        0.1047
     34 N           6.1164   -3.3357   32.3469 N.ar    1  UNL1       -0.2298
     35 C           5.2764   -2.1158   32.5841 C.ar    1  UNL1        0.1213
     36 N           4.7566   -1.8190   33.9595 N.pl3   1  UNL1       -0.3429
     37 H           4.9667   -2.4249   34.7065 H       1  UNL1        0.1437
     38 H           4.2053   -1.0184   34.1153 H       1  UNL1        0.1437
@<TRIPOS>BOND
     1    29    30    1
     2    30    31   ar
     3    31    32   ar
     4    32    25    1
     5    25    26    2
     6    25    27   am
     7    27     1    1
     8     1     2    1
     9     2     3    1
    10     3     4    1
    11     4     5    2
    12     5     8    1
    13     8     9   ar
    14     9    10   ar
    15    10    11   ar
    16    11    12   ar
    17    12    14    1
    18    14    15    1
    19    15    16   ar
    20    16    17   ar
    21    17    18   ar
    22    18    21    1
    23    21    22    1
    24    21    23    1
    25    21    24    1
    26    18    19   ar
    27    19    20   ar
    28    12    13   ar
    29     4     6    1
    30     6     7    1
    31    32    33   ar
    32    33    34   ar
    33    34    35   ar
    34    35    36    1
    35    35    30   ar
    36     7     1    1
    37    13     8   ar
    38    20    15   ar
    39    27    28    1
    40    36    37    1
    41    36    38    1
@<TRIPOS>MOLECULE
*****
 38 41 0 0 0
SMALL
GASTEIGER

@<TRIPOS>ATOM
      1 C           6.5036   -3.2238   22.1399 C.3     1  UNL1        0.0725
      2 C           6.2404   -3.6812   23.5440 C.3     1  UNL1        0.0239
      3 C           7.1499   -4.6847   24.1889 C.3     1  UNL1        0.0237
      4 C           8.3226   -5.2308   23.4296 C.2     1  UNL1       -0.0441
      5 C           9.2320   -6.2343   24.0745 C.2     1  UNL1       -0.0084
      6 C           8.5858   -4.7735   22.0255 C.3     1  UNL1        0.0237
      7 C           7.6764   -3.7700   21.3806 C.3     1  UNL1        0.0239
      8 C           8.9687   -6.6916   25.4786 C.ar    1  UNL1        0.0024
      9 C           8.3519   -8.0363   25.7262 C.ar    1  UNL1        0.0002
     10 C           8.0886   -8.4937   27.1303 C.ar    1  UNL1        0.0031
     11 C           8.4422   -7.6063   28.2869 C.ar    1  UNL1        0.0376
     12 C           9.0590   -6.2616   28.0393 C.ar    1  UNL1        0.1472
     13 C           9.3223   -5.8042   26.6352 C.ar    1  UNL1        0.0375
     14 O           9.4126   -5.3742   29.1958 O.3     1  UNL1       -0.4361
     15 C           8.3444   -4.5756   29.8823 C.ar    1  UNL1        0.2297
     16 C           7.8946   -4.9546   31.2621 C.ar    1  UNL1        0.0581
     17 C           6.8265   -4.1560   31.9486 C.ar    1  UNL1        0.0102
     18 C           6.2082   -2.9782   31.2553 C.ar    1  UNL1        0.0907
     19 C           6.6581   -2.5992   29.8755 C.ar    1  UNL1        0.1059
     20 N           7.7262   -3.3979   29.1890 N.ar    1  UNL1       -0.2099
     21 C           5.1401   -2.1796   31.9418 C.3     1  UNL1        0.4200
     22 F           4.0720   -1.3809   32.6283 F       1  UNL1       -0.1658
     23 F           5.1447   -3.1538   33.0824 F       1  UNL1       -0.1658
     24 F           5.1355   -1.2054   30.8012 F       1  UNL1       -0.1658
     25 C           4.4721   -2.6827   20.6134 C.2     1  UNL1        0.2473
     26 O           4.2595   -4.1485   20.3767 O.2     1  UNL1       -0.2701
     27 N           5.5942   -2.2203   21.4950 N.am    1  UNL1       -0.3024
     28 H           5.7337   -1.2582   21.6503 H       1  UNL1        0.1497
     29 C           0.2465    0.3353   20.8020 C.3     1  UNL1        0.0339
     30 C           1.4499   -0.1702   20.0628 C.ar    1  UNL1        0.0095
     31 C           2.3593   -1.1737   20.7076 C.ar    1  UNL1        0.0046
     32 C           3.5627   -1.6791   19.9685 C.ar    1  UNL1        0.0723
     33 C           3.8566   -1.1811   18.5845 C.ar    1  UNL1        0.1047
     34 N           2.9472   -0.1776   17.9396 N.ar    1  UNL1       -0.2298
     35 C           1.7438    0.3279   18.6788 C.ar    1  UNL1        0.1213
     36 N           0.8344    1.3314   18.0339 N.pl3   1  UNL1       -0.3429
     37 H           1.0273    1.6583   17.1255 H       1  UNL1        0.1437
     38 H           0.0445    1.6632   18.5190 H       1  UNL1        0.1437
@<TRIPOS>BOND
     1    29    30    1
     2    30    31   ar
     3    31    32   ar
     4    32    25    1
     5    25    26    2
     6    25    27   am
     7    27     1    1
     8     1     2    1
     9     2     3    1
    10     3     4    1
    11     4     5    2
    12     5     8    1
    13     8     9   ar
    14     9    10   ar
    15    10    11   ar
    16    11    12   ar
    17    12    14    1
    18    14    15    1
    19    15    16   ar
    20    16    17   ar
    21    17    18   ar
    22    18    21    1
    23    21    22    1
    24    21    23    1
    25    21    24    1
    26    18    19   ar
    27    19    20   ar
    28    12    13   ar
    29     4     6    1
    30     6     7    1
    31    32    33   ar
    32    33    34   ar
    33    34    35   ar
    34    35    36    1
    35    35    30   ar
    36     7     1    1
    37    13     8   ar
    38    20    15   ar
    39    27    28    1
    40    36    37    1
    41    36    38    1
@<TRIPOS>MOLECULE
*****
 38 41 0 0 0
SMALL
GASTEIGER

@<TRIPOS>ATOM
      1 C           4.3021   -2.6678   21.7706 C.3     1  UNL1        0.0725
      2 C           3.8989   -1.2349   21.9559 C.3     1  UNL1        0.0239
      3 C           3.3822   -0.4445   20.7904 C.3     1  UNL1        0.0237
      4 C           3.2687   -1.0869   19.4397 C.2     1  UNL1       -0.0441
      5 C           2.7520   -0.2965   18.2743 C.2     1  UNL1       -0.0084
      6 C           3.6719   -2.5198   19.2544 C.3     1  UNL1        0.0237
      7 C           4.1886   -3.3102   20.4198 C.3     1  UNL1        0.0239
      8 C           2.3488    1.1364   18.4595 C.ar    1  UNL1        0.0024
      9 C           3.3984    2.1986   18.6004 C.ar    1  UNL1        0.0002
     10 C           2.9952    3.6315   18.7857 C.ar    1  UNL1        0.0031
     11 C           1.5424    4.0021   18.8301 C.ar    1  UNL1        0.0376
     12 C           0.4927    2.9398   18.6892 C.ar    1  UNL1        0.1472
     13 C           0.8959    1.5069   18.5039 C.ar    1  UNL1        0.0375
     14 O          -0.9601    3.3104   18.7336 O.3     1  UNL1       -0.4361
     15 C          -1.6777    3.3751   20.0492 C.ar    1  UNL1        0.2297
     16 C          -0.8972    3.4987   21.3240 C.ar    1  UNL1        0.0581
     17 C          -1.6148    3.5634   22.6396 C.ar    1  UNL1        0.0102
     18 C          -3.1131    3.5045   22.6803 C.ar    1  UNL1        0.0907
     19 C          -3.8937    3.3809   21.4055 C.ar    1  UNL1        0.1059
     20 N          -3.1760    3.3162   20.0899 N.ar    1  UNL1       -0.2099
     21 C          -3.8308    3.5692   23.9959 C.3     1  UNL1        0.4200
     22 F          -4.5484    3.6340   25.3115 F       1  UNL1       -0.1658
     23 F          -4.8626    2.6104   23.4802 F       1  UNL1       -0.1658
     24 F          -2.7990    4.5281   24.5116 F       1  UNL1       -0.1658
     25 C           6.2878   -3.4751   23.2385 C.2     1  UNL1        0.2473
     26 O           7.2402   -2.7017   22.3756 O.2     1  UNL1       -0.2701
     27 N           4.8188   -3.4582   22.9360 N.am    1  UNL1       -0.3024
     28 H           4.1937   -3.9659   23.5024 H       1  UNL1        0.1497
     29 C           8.6457   -7.7090   25.1134 C.3     1  UNL1        0.0339
     30 C           7.9834   -6.3826   25.3414 C.ar    1  UNL1        0.0095
     31 C           7.4668   -5.5921   24.1760 C.ar    1  UNL1        0.0046
     32 C           6.8045   -4.2656   24.4040 C.ar    1  UNL1        0.0723
     33 C           6.6589   -3.7297   25.7974 C.ar    1  UNL1        0.1047
     34 N           7.1756   -4.5201   26.9627 N.ar    1  UNL1       -0.2298
     35 C           7.8378   -5.8466   26.7348 C.ar    1  UNL1        0.1213
     36 N           8.3545   -6.6371   27.9002 N.pl3   1  UNL1       -0.3429
     37 H           8.2589   -6.2853   28.8148 H       1  UNL1        0.1437
     38 H           8.7892   -7.5077   27.7506 H       1  UNL1        0.1437
@<TRIPOS>BOND
     1    29    30    1
     2    30    31   ar
     3    31    32   ar
     4    32    25    1
     5    25    26    2
     6    25    27   am
     7    27     1    1
     8     1     2    1
     9     2     3    1
    10     3     4    1
    11     4     5    2
    12     5     8    1
    13     8     9   ar
    14     9    10   ar
    15    10    11   ar
    16    11    12   ar
    17    12    14    1
    18    14    15    1
    19    15    16   ar
    20    16    17   ar
    21    17    18   ar
    22    18    21    1
    23    21    22    1
    24    21    23    1
    25    21    24    1
    26    18    19   ar
    27    19    20   ar
    28    12    13   ar
    29     4     6    1
    30     6     7    1
    31    32    33   ar
    32    33    34   ar
    33    34    35   ar
    34    35    36    1
    35    35    30   ar
    36     7     1    1
    37    13     8   ar
    38    20    15   ar
    39    27    28    1
    40    36    37    1
    41    36    38    1
@<TRIPOS>MOLECULE
*****
 38 41 0 0 0
SMALL
GASTEIGER

@<TRIPOS>ATOM
      1 C           6.0870   -2.2639   26.3785 C.3     1  UNL1        0.0725
      2 C           5.0504   -2.2448   27.4625 C.3     1  UNL1        0.0239
      3 C           5.3991   -1.7220   28.8246 C.3     1  UNL1        0.0237
      4 C           6.7844   -1.2183   29.1026 C.2     1  UNL1       -0.0441
      5 C           7.1330   -0.6955   30.4646 C.2     1  UNL1       -0.0084
      6 C           7.8210   -1.2375   28.0186 C.3     1  UNL1        0.0237
      7 C           7.4724   -1.7602   26.6566 C.3     1  UNL1        0.0239
      8 C           6.0964   -0.6764   31.5486 C.ar    1  UNL1        0.0024
      9 C           6.2909   -1.5002   32.7869 C.ar    1  UNL1        0.0002
     10 C           5.2543   -1.4810   33.8709 C.ar    1  UNL1        0.0031
     11 C           4.0232   -0.6381   33.7166 C.ar    1  UNL1        0.0376
     12 C           3.8287    0.1857   32.4782 C.ar    1  UNL1        0.1472
     13 C           4.8653    0.1666   31.3942 C.ar    1  UNL1        0.0375
     14 O           2.5976    1.0286   32.3239 O.3     1  UNL1       -0.4361
     15 C           1.9073    1.1117   30.9947 C.ar    1  UNL1        0.2297
     16 C           1.6766    2.4471   30.3516 C.ar    1  UNL1        0.0581
     17 C           0.9863    2.5302   29.0225 C.ar    1  UNL1        0.0102
     18 C           0.5267    1.2780   28.3365 C.ar    1  UNL1        0.0907
     19 C           0.7574   -0.0574   28.9796 C.ar    1  UNL1        0.1059
     20 N           1.4477   -0.1405   30.3087 N.ar    1  UNL1       -0.2099
     21 C          -0.1636    1.3611   27.0073 C.3     1  UNL1        0.4200
     22 F          -0.8538    1.4442   25.6782 F       1  UNL1       -0.1658
     23 F          -1.4952    1.3331   27.6972 F       1  UNL1       -0.1658
     24 F           1.1681    1.3891   26.3175 F       1  UNL1       -0.1658
     25 C           4.8873   -1.9660   24.0934 C.2     1  UNL1        0.2473
     26 O           4.3848   -0.6226   24.5323 O.2     1  UNL1       -0.2701
     27 N           5.7384   -2.7867   25.0165 N.am    1  UNL1       -0.3024
     28 H           6.0682   -3.6684   24.7285 H       1  UNL1        0.1497
     29 C           2.7874   -1.2397   19.3963 C.3     1  UNL1        0.0339
     30 C           3.4887   -2.1257   20.3828 C.ar    1  UNL1        0.0095
     31 C           3.8373   -1.6029   21.7448 C.ar    1  UNL1        0.0046
     32 C           4.5386   -2.4889   22.7314 C.ar    1  UNL1        0.0723
     33 C           4.8913   -3.8976   22.3559 C.ar    1  UNL1        0.1047
     34 N           4.5426   -4.4204   20.9939 N.ar    1  UNL1       -0.2298
     35 C           3.8413   -3.5345   20.0074 C.ar    1  UNL1        0.1213
     36 N           3.4927   -4.0573   18.6453 N.pl3   1  UNL1       -0.3429
     37 H           3.7242   -4.9819   18.3988 H       1  UNL1        0.1437
     38 H           3.0324   -3.4758   17.9978 H       1  UNL1        0.1437
@<TRIPOS>BOND
     1    29    30    1
     2    30    31   ar
     3    31    32   ar
     4    32    25    1
     5    25    26    2
     6    25    27   am
     7    27     1    1
     8     1     2    1
     9     2     3    1
    10     3     4    1
    11     4     5    2
    12     5     8    1
    13     8     9   ar
    14     9    10   ar
    15    10    11   ar
    16    11    12   ar
    17    12    14    1
    18    14    15    1
    19    15    16   ar
    20    16    17   ar
    21    17    18   ar
    22    18    21    1
    23    21    22    1
    24    21    23    1
    25    21    24    1
    26    18    19   ar
    27    19    20   ar
    28    12    13   ar
    29     4     6    1
    30     6     7    1
    31    32    33   ar
    32    33    34   ar
    33    34    35   ar
    34    35    36    1
    35    35    30   ar
    36     7     1    1
    37    13     8   ar
    38    20    15   ar
    39    27    28    1
    40    36    37    1
    41    36    38    1
@<TRIPOS>MOLECULE
*****
 38 41 0 0 0
SMALL
GASTEIGER

@<TRIPOS>ATOM
      1 C           0.9531    2.1429   27.4056 C.3     1  UNL1        0.0725
      2 C           0.4007    1.7322   26.0728 C.3     1  UNL1        0.0239
      3 C          -0.7561    2.4793   25.4780 C.3     1  UNL1        0.0237
      4 C          -1.3605    3.6370   26.2159 C.2     1  UNL1       -0.0441
      5 C          -2.5172    4.3840   25.6211 C.2     1  UNL1       -0.0084
      6 C          -0.8080    4.0476   27.5487 C.3     1  UNL1        0.0237
      7 C           0.3487    3.3006   28.1435 C.3     1  UNL1        0.0239
      8 C          -3.0696    3.9733   24.2884 C.ar    1  UNL1        0.0024
      9 C          -4.4283    3.3438   24.2014 C.ar    1  UNL1        0.0002
     10 C          -4.9808    2.9332   22.8687 C.ar    1  UNL1        0.0031
     11 C          -4.1745    3.1520   21.6229 C.ar    1  UNL1        0.0376
     12 C          -2.8157    3.7816   21.7098 C.ar    1  UNL1        0.1472
     13 C          -2.2633    4.1922   23.0426 C.ar    1  UNL1        0.0375
     14 O          -2.0095    4.0005   20.4641 O.3     1  UNL1       -0.4361
     15 C          -0.9813    2.9903   20.0490 C.ar    1  UNL1        0.2297
     16 C          -0.2389    3.1630   18.7571 C.ar    1  UNL1        0.0581
     17 C           0.7893    2.1529   18.3420 C.ar    1  UNL1        0.0102
     18 C           1.0751    0.9699   19.2188 C.ar    1  UNL1        0.0907
     19 C           0.3328    0.7971   20.5107 C.ar    1  UNL1        0.1059
     20 N          -0.6954    1.8073   20.9258 N.ar    1  UNL1       -0.2099
     21 C           2.1033   -0.0403   18.8037 C.3     1  UNL1        0.4200
     22 F           3.1316   -1.0505   18.3886 F       1  UNL1       -0.1658
     23 F           2.6489    0.9287   17.7970 F       1  UNL1       -0.1658
     24 F           1.5577   -1.0093   19.8104 F       1  UNL1       -0.1658
     25 C           1.8823    0.4397   29.1335 C.2     1  UNL1        0.2473
     26 O           0.4979    0.2306   29.6718 O.2     1  UNL1       -0.2701
     27 N           2.1099    1.3959   28.0004 N.am    1  UNL1       -0.3024
     28 H           3.0185    1.5331   27.6471 H       1  UNL1        0.1497
     29 C           4.2613   -1.6196   33.2687 C.3     1  UNL1        0.0339
     30 C           4.2286   -1.3370   31.7959 C.ar    1  UNL1        0.0095
     31 C           3.0718   -0.5900   31.2011 C.ar    1  UNL1        0.0046
     32 C           3.0391   -0.3073   29.7283 C.ar    1  UNL1        0.0723
     33 C           4.1632   -0.7716   28.8504 C.ar    1  UNL1        0.1047
     34 N           5.3200   -1.5186   29.4452 N.ar    1  UNL1       -0.2298
     35 C           5.3527   -1.8013   30.9180 C.ar    1  UNL1        0.1213
     36 N           6.5095   -2.5483   31.5128 N.pl3   1  UNL1       -0.3429
     37 H           7.2473   -2.8531   30.9365 H       1  UNL1        0.1437
     38 H           6.5310   -2.7338   32.4794 H       1  UNL1        0.1437
@<TRIPOS>BOND
     1    29    30    1
     2    30    31   ar
     3    31    32   ar
     4    32    25    1
     5    25    26    2
     6    25    27   am
     7    27     1    1
     8     1     2    1
     9     2     3    1
    10     3     4    1
    11     4     5    2
    12     5     8    1
    13     8     9   ar
    14     9    10   ar
    15    10    11   ar
    16    11    12   ar
    17    12    14    1
    18    14    15    1
    19    15    16   ar
    20    16    17   ar
    21    17    18   ar
    22    18    21    1
    23    21    22    1
    24    21    23    1
    25    21    24    1
    26    18    19   ar
    27    19    20   ar
    28    12    13   ar
    29     4     6    1
    30     6     7    1
    31    32    33   ar
    32    33    34   ar
    33    34    35   ar
    34    35    36    1
    35    35    30   ar
    36     7     1    1
    37    13     8   ar
    38    20    15   ar
    39    27    28    1
    40    36    37    1
    41    36    38    1
@<TRIPOS>MOLECULE
*****
 38 41 0 0 0
SMALL
GASTEIGER

@<TRIPOS>ATOM
      1 C           6.2115   -2.7530   26.4165 C.3     1  UNL1        0.0725
      2 C           6.1827   -1.9578   25.1450 C.3     1  UNL1        0.0239
      3 C           6.6480   -2.5789   23.8613 C.3     1  UNL1        0.0237
      4 C           7.1419   -3.9952   23.8491 C.2     1  UNL1       -0.0441
      5 C           7.6071   -4.6163   22.5655 C.2     1  UNL1       -0.0084
      6 C           7.1706   -4.7904   25.1207 C.3     1  UNL1        0.0237
      7 C           6.7054   -4.1694   26.4043 C.3     1  UNL1        0.0239
      8 C           7.5783   -3.8210   21.2939 C.ar    1  UNL1        0.0024
      9 C           8.7924   -3.0533   20.8619 C.ar    1  UNL1        0.0002
     10 C           8.7636   -2.2581   19.5904 C.ar    1  UNL1        0.0031
     11 C           7.5209   -2.2306   18.7509 C.ar    1  UNL1        0.0376
     12 C           6.3068   -2.9984   19.1829 C.ar    1  UNL1        0.1472
     13 C           6.3355   -3.7936   20.4544 C.ar    1  UNL1        0.0375
     14 O           5.0641   -2.9709   18.3434 O.3     1  UNL1       -0.4361
     15 C           3.9816   -1.9753   18.6383 C.ar    1  UNL1        0.2297
     16 C           3.1049   -2.1551   19.8420 C.ar    1  UNL1        0.0581
     17 C           2.0224   -1.1594   20.1369 C.ar    1  UNL1        0.0102
     18 C           1.8167    0.0160   19.2281 C.ar    1  UNL1        0.0907
     19 C           2.6934    0.1958   18.0244 C.ar    1  UNL1        0.1059
     20 N           3.7759   -0.7998   17.7295 N.ar    1  UNL1       -0.2099
     21 C           0.7342    1.0116   19.5230 C.3     1  UNL1        0.4200
     22 F          -0.3483    2.0072   19.8179 F       1  UNL1       -0.1658
     23 F           0.0721    0.0217   20.4350 F       1  UNL1       -0.1658
     24 F           1.3962    2.0015   18.6110 F       1  UNL1       -0.1658
     25 C           4.4081   -1.4574   27.7653 C.2     1  UNL1        0.2473
     26 O           3.5352   -1.4038   26.5467 O.2     1  UNL1       -0.2701
     27 N           5.7463   -2.1320   27.7002 N.am    1  UNL1       -0.3024
     28 H           6.3192   -2.1672   28.5000 H       1  UNL1        0.1497
     29 C           5.4785    0.6189   32.4068 C.3     1  UNL1        0.0339
     30 C           4.4782    0.2018   31.3697 C.ar    1  UNL1        0.0095
     31 C           4.9433   -0.4192   30.0860 C.ar    1  UNL1        0.0046
     32 C           3.9429   -0.8363   29.0490 C.ar    1  UNL1        0.0723
     33 C           2.4775   -0.6324   29.2957 C.ar    1  UNL1        0.1047
     34 N           2.0124   -0.0113   30.5794 N.ar    1  UNL1       -0.2298
     35 C           3.0128    0.4057   31.6164 C.ar    1  UNL1        0.1213
     36 N           2.5476    1.0268   32.9002 N.pl3   1  UNL1       -0.3429
     37 H           1.5858    1.1607   33.0621 H       1  UNL1        0.1437
     38 H           3.2041    1.3006   33.5808 H       1  UNL1        0.1437
@<TRIPOS>BOND
     1    29    30    1
     2    30    31   ar
     3    31    32   ar
     4    32    25    1
     5    25    26    2
     6    25    27   am
     7    27     1    1
     8     1     2    1
     9     2     3    1
    10     3     4    1
    11     4     5    2
    12     5     8    1
    13     8     9   ar
    14     9    10   ar
    15    10    11   ar
    16    11    12   ar
    17    12    14    1
    18    14    15    1
    19    15    16   ar
    20    16    17   ar
    21    17    18   ar
    22    18    21    1
    23    21    22    1
    24    21    23    1
    25    21    24    1
    26    18    19   ar
    27    19    20   ar
    28    12    13   ar
    29     4     6    1
    30     6     7    1
    31    32    33   ar
    32    33    34   ar
    33    34    35   ar
    34    35    36    1
    35    35    30   ar
    36     7     1    1
    37    13     8   ar
    38    20    15   ar
    39    27    28    1
    40    36    37    1
    41    36    38    1
@<TRIPOS>MOLECULE
*****
 38 41 0 0 0
SMALL
GASTEIGER

@<TRIPOS>ATOM
      1 C           6.2598   -1.9273   32.5918 C.3     1  UNL1        0.0725
      2 C           5.6431   -2.3413   31.2886 C.3     1  UNL1        0.0239
      3 C           6.4770   -3.0308   30.2497 C.3     1  UNL1        0.0237
      4 C           7.9275   -3.3064   30.5141 C.2     1  UNL1       -0.0441
      5 C           8.7614   -3.9959   29.4752 C.2     1  UNL1       -0.0084
      6 C           8.5443   -2.8923   31.8172 C.3     1  UNL1        0.0237
      7 C           7.7104   -2.2028   32.8561 C.3     1  UNL1        0.0239
      8 C           8.1447   -4.4099   28.1721 C.ar    1  UNL1        0.0024
      9 C           7.5299   -5.7709   28.0321 C.ar    1  UNL1        0.0002
     10 C           6.9132   -6.1849   26.7289 C.ar    1  UNL1        0.0031
     11 C           6.9112   -5.2379   25.5657 C.ar    1  UNL1        0.0376
     12 C           7.5260   -3.8768   25.7057 C.ar    1  UNL1        0.1472
     13 C           8.1427   -3.4628   27.0088 C.ar    1  UNL1        0.0375
     14 O           7.5240   -2.9298   24.5425 O.3     1  UNL1       -0.4361
     15 C           6.6483   -3.2017   23.3554 C.ar    1  UNL1        0.2297
     16 C           5.1617   -3.0348   23.4661 C.ar    1  UNL1        0.0581
     17 C           4.2860   -3.3067   22.2790 C.ar    1  UNL1        0.0102
     18 C           4.8968   -3.7456   20.9813 C.ar    1  UNL1        0.0907
     19 C           6.3833   -3.9125   20.8705 C.ar    1  UNL1        0.1059
     20 N           7.2591   -3.6406   22.0576 N.ar    1  UNL1       -0.2099
     21 C           4.0211   -4.0175   19.7942 C.3     1  UNL1        0.4200
     22 F           3.1453   -4.2895   18.6071 F       1  UNL1       -0.1658
     23 F           3.1742   -2.8308   20.1470 F       1  UNL1       -0.1658
     24 F           4.8679   -5.2043   19.4413 F       1  UNL1       -0.1658
     25 C           5.0664    0.2091   33.4646 C.2     1  UNL1        0.2473
     26 O           5.5406    0.9663   32.2598 O.2     1  UNL1       -0.2701
     27 N           5.4259   -1.2377   33.6306 N.am    1  UNL1       -0.3024
     28 H           5.1147   -1.7347   34.4214 H       1  UNL1        0.1497
     29 C           4.0237    1.2208   38.4535 C.3     1  UNL1        0.0339
     30 C           3.7112    1.4044   36.9980 C.ar    1  UNL1        0.0095
     31 C           4.5450    0.7150   35.9591 C.ar    1  UNL1        0.0046
     32 C           4.2325    0.8986   34.5035 C.ar    1  UNL1        0.0723
     33 C           3.0862    1.7717   34.0869 C.ar    1  UNL1        0.1047
     34 N           2.2524    2.4611   35.1257 N.ar    1  UNL1       -0.2298
     35 C           2.5649    2.2775   36.5813 C.ar    1  UNL1        0.1213
     36 N           1.7310    2.9670   37.6202 N.pl3   1  UNL1       -0.3429
     37 H           0.9786    3.5401   37.3467 H       1  UNL1        0.1437
     38 H           1.9361    2.8466   38.5755 H       1  UNL1        0.1437
@<TRIPOS>BOND
     1    29    30    1
     2    30    31   ar
     3    31    32   ar
     4    32    25    1
     5    25    26    2
     6    25    27   am
     7    27     1    1
     8     1     2    1
     9     2     3    1
    10     3     4    1
    11     4     5    2
    12     5     8    1
    13     8     9   ar
    14     9    10   ar
    15    10    11   ar
    16    11    12   ar
    17    12    14    1
    18    14    15    1
    19    15    16   ar
    20    16    17   ar
    21    17    18   ar
    22    18    21    1
    23    21    22    1
    24    21    23    1
    25    21    24    1
    26    18    19   ar
    27    19    20   ar
    28    12    13   ar
    29     4     6    1
    30     6     7    1
    31    32    33   ar
    32    33    34   ar
    33    34    35   ar
    34    35    36    1
    35    35    30   ar
    36     7     1    1
    37    13     8   ar
    38    20    15   ar
    39    27    28    1
    40    36    37    1
    41    36    38    1
