@<TRIPOS>MOLECULE
*****
 25 28 0 0 0
SMALL
GASTEIGER

@<TRIPOS>ATOM
      1 C         -10.4965  -19.5007   21.2696 C.ar    1  UNL1        0.1386
      2 C          -9.7558  -19.3255   19.9770 C.ar    1  UNL1        0.0369
      3 C          -8.2565  -19.3680   19.9600 C.ar    1  UNL1        0.0043
      4 C          -7.4979  -19.5858   21.2356 C.ar    1  UNL1        0.0152
      5 C          -8.2386  -19.7609   22.5282 C.ar    1  UNL1        0.0043
      6 C          -9.7379  -19.7184   22.5452 C.ar    1  UNL1        0.0369
      7 C          -5.9986  -19.6283   21.2186 C.2     1  UNL1        0.0763
      8 N          -5.2846  -20.5209   20.2474 N.2     1  UNL1       -0.1836
      9 N          -3.7853  -20.5634   20.2304 N.am    1  UNL1       -0.2062
     10 C          -3.0000  -19.7134   21.1846 C.2     1  UNL1        0.2410
     11 O          -1.5007  -19.7559   21.1676 O.2     1  UNL1       -0.2734
     12 C          -3.7140  -18.8207   22.1560 C.3     1  UNL1        0.0841
     13 C          -4.4280  -17.9281   23.1272 C.3     1  UNL1        0.0160
     14 C          -5.2133  -18.7782   22.1730 C.3     1  UNL1        0.0509
     15 H          -3.3167  -21.1493   19.5929 H       1  UNL1        0.1772
     16 O         -11.9958  -19.4581   21.2866 O.3     1  UNL1       -0.4754
     17 C         -12.7068  -18.1534   21.4915 C.3     1  UNL1        0.2068
     18 C         -12.7917  -17.5528   22.8634 C.3     1  UNL1        0.0646
     19 C         -12.0508  -16.2863   23.1748 C.3     1  UNL1        0.0759
     20 C         -10.3253  -15.6780   20.4726 C.3     1  UNL1        0.0173
     21 C          -9.7615  -15.9688   21.8318 C.3     1  UNL1        0.0576
     22 C          -8.3057  -16.0310   22.1877 C.3     1  UNL1        0.0174
     23 C          -8.1990  -16.3491   23.6497 C.3     1  UNL1        0.0187
     24 C          -9.5890  -16.4834   24.1974 C.3     1  UNL1        0.0721
     25 N         -10.5547  -16.2484   23.0739 N.3     1  UNL1       -0.2738
@<TRIPOS>BOND
     1    21    20    1
     2    21    22    1
     3    22    23    1
     4    23    24    1
     5    24    25    1
     6    25    19    1
     7    19    18    1
     8    18    17    1
     9    17    16    1
    10    16     1    1
    11     1     2   ar
    12     2     3   ar
    13     3     4   ar
    14     4     7    1
    15     7     8    2
    16     8     9    1
    17     9    10   am
    18    10    11    2
    19    10    12    1
    20    12    13    1
    21    14    13    1
    22     4     5   ar
    23     5     6   ar
    24    25    21    1
    25     6     1   ar
    26    14     7    1
    27    14    12    1
    28     9    15    1
@<TRIPOS>MOLECULE
*****
 25 28 0 0 0
SMALL
GASTEIGER

@<TRIPOS>ATOM
      1 C          -9.2742  -18.9852   23.4905 C.ar    1  UNL1        0.1386
      2 C          -8.5341  -20.2245   23.0824 C.ar    1  UNL1        0.0369
      3 C          -7.2226  -20.1122   22.3630 C.ar    1  UNL1        0.0043
      4 C          -6.6513  -18.7606   22.0517 C.ar    1  UNL1        0.0152
      5 C          -7.3914  -17.5214   22.4598 C.ar    1  UNL1        0.0043
      6 C          -8.7029  -17.6337   23.1792 C.ar    1  UNL1        0.0369
      7 C          -5.3399  -18.6482   21.3323 C.2     1  UNL1        0.0763
      8 N          -5.3027  -18.6698   19.8330 N.2     1  UNL1       -0.1836
      9 N          -3.9912  -18.5575   19.1136 N.am    1  UNL1       -0.2062
     10 C          -2.7170  -18.4236   19.8935 C.2     1  UNL1        0.2410
     11 O          -1.4056  -18.3112   19.1741 O.2     1  UNL1       -0.2734
     12 C          -2.7542  -18.4019   21.3930 C.3     1  UNL1        0.0841
     13 C          -2.7914  -18.3803   22.8923 C.3     1  UNL1        0.0160
     14 C          -4.0656  -18.5143   22.1123 C.3     1  UNL1        0.0509
     15 H          -3.9668  -18.5717   18.1295 H       1  UNL1        0.1772
     16 O         -10.5856  -19.0976   24.2099 O.3     1  UNL1       -0.4754
     17 C         -11.5481  -17.9472   24.1987 C.3     1  UNL1        0.2068
     18 C         -12.8892  -18.0977   23.5437 C.3     1  UNL1        0.0646
     19 C         -13.0215  -17.9315   22.0588 C.3     1  UNL1        0.0759
     20 C         -11.1883  -15.9787   20.1946 C.3     1  UNL1        0.0173
     21 C         -11.0656  -17.4701   20.2962 C.3     1  UNL1        0.0576
     22 C         -10.0787  -18.3259   19.5589 C.3     1  UNL1        0.0174
     23 C         -10.3114  -19.7524   19.9600 C.3     1  UNL1        0.0187
     24 C         -11.4421  -19.7783   20.9453 C.3     1  UNL1        0.0721
     25 N         -11.9082  -18.3678   21.1532 N.3     1  UNL1       -0.2738
@<TRIPOS>BOND
     1    21    20    1
     2    21    22    1
     3    22    23    1
     4    23    24    1
     5    24    25    1
     6    25    19    1
     7    19    18    1
     8    18    17    1
     9    17    16    1
    10    16     1    1
    11     1     2   ar
    12     2     3   ar
    13     3     4   ar
    14     4     7    1
    15     7     8    2
    16     8     9    1
    17     9    10   am
    18    10    11    2
    19    10    12    1
    20    12    13    1
    21    14    13    1
    22     4     5   ar
    23     5     6   ar
    24    25    21    1
    25     6     1   ar
    26    14     7    1
    27    14    12    1
    28     9    15    1
@<TRIPOS>MOLECULE
*****
 25 28 0 0 0
SMALL
GASTEIGER

@<TRIPOS>ATOM
      1 C          -6.7272  -19.1165   20.5294 C.ar    1  UNL1        0.1386
      2 C          -8.0462  -19.4218   19.8834 C.ar    1  UNL1        0.0369
      3 C          -9.3147  -19.3003   20.6746 C.ar    1  UNL1        0.0043
      4 C          -9.2643  -18.8736   22.1118 C.ar    1  UNL1        0.0152
      5 C          -7.9454  -18.5683   22.7577 C.ar    1  UNL1        0.0043
      6 C          -6.6768  -18.6898   21.9665 C.ar    1  UNL1        0.0369
      7 C         -10.5329  -18.7521   22.9030 C.2     1  UNL1        0.0763
      8 N         -10.5875  -19.2563   24.3146 N.2     1  UNL1       -0.1836
      9 N         -11.8561  -19.1349   25.1059 N.am    1  UNL1       -0.2062
     10 C         -13.0700  -18.5091   24.4855 C.2     1  UNL1        0.2410
     11 O         -14.3385  -18.3877   25.2767 O.2     1  UNL1       -0.2734
     12 C         -13.0153  -18.0049   23.0738 C.3     1  UNL1        0.0841
     13 C         -12.9607  -17.5006   21.6622 C.3     1  UNL1        0.0160
     14 C         -11.7468  -18.1263   22.2826 C.3     1  UNL1        0.0509
     15 H         -11.8920  -19.4658   26.0324 H       1  UNL1        0.1772
     16 O          -5.4587  -19.2380   19.7381 O.3     1  UNL1       -0.4754
     17 C          -4.7095  -20.5373   19.7169 C.3     1  UNL1        0.2068
     18 C          -3.2992  -20.5983   20.2239 C.3     1  UNL1        0.0646
     19 C          -2.9226  -19.8738   21.4822 C.3     1  UNL1        0.0759
     20 C          -3.7943  -17.4349   23.4675 C.3     1  UNL1        0.0173
     21 C          -2.8259  -17.3392   22.3261 C.3     1  UNL1        0.0576
     22 C          -2.0881  -16.1058   21.8967 C.3     1  UNL1        0.0174
     23 C          -1.2314  -16.4645   20.7188 C.3     1  UNL1        0.0187
     24 C          -1.4397  -17.9197   20.4202 C.3     1  UNL1        0.0721
     25 N          -2.4252  -18.4603   21.4135 N.3     1  UNL1       -0.2738
@<TRIPOS>BOND
     1    21    20    1
     2    21    22    1
     3    22    23    1
     4    23    24    1
     5    24    25    1
     6    25    19    1
     7    19    18    1
     8    18    17    1
     9    17    16    1
    10    16     1    1
    11     1     2   ar
    12     2     3   ar
    13     3     4   ar
    14     4     7    1
    15     7     8    2
    16     8     9    1
    17     9    10   am
    18    10    11    2
    19    10    12    1
    20    12    13    1
    21    14    13    1
    22     4     5   ar
    23     5     6   ar
    24    25    21    1
    25     6     1   ar
    26    14     7    1
    27    14    12    1
    28     9    15    1
@<TRIPOS>MOLECULE
*****
 25 28 0 0 0
SMALL
GASTEIGER

@<TRIPOS>ATOM
      1 C          -8.6486  -19.5854   21.1415 C.ar    1  UNL1        0.1386
      2 C          -8.0723  -19.4087   19.7679 C.ar    1  UNL1        0.0369
      3 C          -6.5982  -19.1914   19.5952 C.ar    1  UNL1        0.0043
      4 C          -5.7004  -19.1507   20.7962 C.ar    1  UNL1        0.0152
      5 C          -6.2767  -19.3274   22.1698 C.ar    1  UNL1        0.0043
      6 C          -7.7508  -19.5447   22.3424 C.ar    1  UNL1        0.0369
      7 C          -4.2263  -18.9334   20.6236 C.2     1  UNL1        0.0763
      8 N          -3.5851  -19.1668   19.2878 N.2     1  UNL1       -0.1836
      9 N          -2.1110  -18.9494   19.1152 N.am    1  UNL1       -0.2062
     10 C          -1.2781  -18.4987   20.2784 C.2     1  UNL1        0.2410
     11 O           0.1960  -18.2814   20.1058 O.2     1  UNL1       -0.2734
     12 C          -1.9193  -18.2653   21.6143 C.3     1  UNL1        0.0841
     13 C          -2.5604  -18.0319   22.9501 C.3     1  UNL1        0.0160
     14 C          -3.3934  -18.4826   21.7869 C.3     1  UNL1        0.0509
     15 H          -1.6902  -19.1026   18.2385 H       1  UNL1        0.1772
     16 O         -10.1227  -19.8027   21.3141 O.3     1  UNL1       -0.4754
     17 C         -10.7337  -19.7475   22.6829 C.3     1  UNL1        0.2068
     18 C         -11.8694  -18.8075   22.9599 C.3     1  UNL1        0.0646
     19 C         -11.5909  -17.3693   23.2822 C.3     1  UNL1        0.0759
     20 C          -9.2868  -17.3328   25.5929 C.3     1  UNL1        0.0173
     21 C          -9.1428  -16.8059   24.1959 C.3     1  UNL1        0.0576
     22 C          -7.9146  -16.1698   23.6157 C.3     1  UNL1        0.0174
     23 C          -8.2145  -15.7934   22.1950 C.3     1  UNL1        0.0187
     24 C          -9.6282  -16.1969   21.8972 C.3     1  UNL1        0.0721
     25 N         -10.2020  -16.8227   23.1338 N.3     1  UNL1       -0.2738
@<TRIPOS>BOND
     1    21    20    1
     2    21    22    1
     3    22    23    1
     4    23    24    1
     5    24    25    1
     6    25    19    1
     7    19    18    1
     8    18    17    1
     9    17    16    1
    10    16     1    1
    11     1     2   ar
    12     2     3   ar
    13     3     4   ar
    14     4     7    1
    15     7     8    2
    16     8     9    1
    17     9    10   am
    18    10    11    2
    19    10    12    1
    20    12    13    1
    21    14    13    1
    22     4     5   ar
    23     5     6   ar
    24    25    21    1
    25     6     1   ar
    26    14     7    1
    27    14    12    1
    28     9    15    1
@<TRIPOS>MOLECULE
*****
 25 28 0 0 0
SMALL
GASTEIGER

@<TRIPOS>ATOM
      1 C          -9.8271  -16.4946   22.4388 C.ar    1  UNL1        0.1386
      2 C          -8.7697  -16.2696   23.4787 C.ar    1  UNL1        0.0369
      3 C          -7.4214  -16.9093   23.3281 C.ar    1  UNL1        0.0043
      4 C          -7.1304  -17.7741   22.1374 C.ar    1  UNL1        0.0152
      5 C          -8.1877  -17.9991   21.0976 C.ar    1  UNL1        0.0043
      6 C          -9.5360  -17.3594   21.2482 C.ar    1  UNL1        0.0369
      7 C          -5.7820  -18.4138   21.9868 C.2     1  UNL1        0.0763
      8 N          -4.6033  -17.8640   22.7340 N.2     1  UNL1       -0.1836
      9 N          -3.2550  -18.5038   22.5833 N.am    1  UNL1       -0.2062
     10 C          -3.0853  -19.6933   21.6854 C.2     1  UNL1        0.2410
     11 O          -1.7370  -20.3330   21.5348 O.2     1  UNL1       -0.2734
     12 C          -4.2640  -20.2431   20.9382 C.3     1  UNL1        0.0841
     13 C          -5.4427  -20.7929   20.1910 C.3     1  UNL1        0.0160
     14 C          -5.6124  -19.6034   21.0888 C.3     1  UNL1        0.0509
     15 H          -2.4813  -18.1429   23.0737 H       1  UNL1        0.1772
     16 O         -11.1754  -15.8549   22.5894 O.3     1  UNL1       -0.4754
     17 C         -12.2985  -16.2483   21.6762 C.3     1  UNL1        0.2068
     18 C         -12.9855  -17.5692   21.8582 C.3     1  UNL1        0.0646
     19 C         -12.9597  -18.2502   23.1944 C.3     1  UNL1        0.0759
     20 C         -11.2033  -20.3665   21.4377 C.3     1  UNL1        0.0173
     21 C         -10.9119  -19.9321   22.8434 C.3     1  UNL1        0.0576
     22 C          -9.7620  -20.3941   23.6887 C.3     1  UNL1        0.0174
     23 C          -9.8586  -19.7069   25.0185 C.3     1  UNL1        0.0187
     24 C         -11.0683  -18.8202   24.9952 C.3     1  UNL1        0.0721
     25 N         -11.7192  -18.9593   23.6510 N.3     1  UNL1       -0.2738
@<TRIPOS>BOND
     1    21    20    1
     2    21    22    1
     3    22    23    1
     4    23    24    1
     5    24    25    1
     6    25    19    1
     7    19    18    1
     8    18    17    1
     9    17    16    1
    10    16     1    1
    11     1     2   ar
    12     2     3   ar
    13     3     4   ar
    14     4     7    1
    15     7     8    2
    16     8     9    1
    17     9    10   am
    18    10    11    2
    19    10    12    1
    20    12    13    1
    21    14    13    1
    22     4     5   ar
    23     5     6   ar
    24    25    21    1
    25     6     1   ar
    26    14     7    1
    27    14    12    1
    28     9    15    1
@<TRIPOS>MOLECULE
*****
 25 28 0 0 0
SMALL
GASTEIGER

@<TRIPOS>ATOM
      1 C          -8.9741  -17.8992   23.3802 C.ar    1  UNL1        0.1386
      2 C          -8.5379  -19.2167   22.8108 C.ar    1  UNL1        0.0369
      3 C          -7.1350  -19.3889   22.3085 C.ar    1  UNL1        0.0043
      4 C          -6.1684  -18.2438   22.3757 C.ar    1  UNL1        0.0152
      5 C          -6.6047  -16.9265   22.9451 C.ar    1  UNL1        0.0043
      6 C          -8.0076  -16.7542   23.4473 C.ar    1  UNL1        0.0369
      7 C          -4.7655  -18.4161   21.8734 C.2     1  UNL1        0.0763
      8 N          -3.6856  -17.4800   22.3288 N.2     1  UNL1       -0.1836
      9 N          -2.2827  -17.6523   21.8265 N.am    1  UNL1       -0.2062
     10 C          -1.9598  -18.7606   20.8688 C.2     1  UNL1        0.2410
     11 O          -0.5569  -18.9329   20.3666 O.2     1  UNL1       -0.2734
     12 C          -3.0398  -19.6968   20.4134 C.3     1  UNL1        0.0841
     13 C          -4.1197  -20.6329   19.9580 C.3     1  UNL1        0.0160
     14 C          -4.4426  -19.5245   20.9157 C.3     1  UNL1        0.0509
     15 H          -1.5739  -17.0378   22.1254 H       1  UNL1        0.1772
     16 O         -10.3770  -17.7270   23.8825 O.3     1  UNL1       -0.4754
     17 C         -11.1975  -16.5561   23.4290 C.3     1  UNL1        0.2068
     18 C         -12.5984  -16.7677   22.9364 C.3     1  UNL1        0.0646
     19 C         -12.9105  -17.9283   22.0389 C.3     1  UNL1        0.0759
     20 C         -11.4685  -16.2364   19.6499 C.3     1  UNL1        0.0173
     21 C         -11.2039  -17.6712   19.9976 C.3     1  UNL1        0.0576
     22 C         -10.2301  -18.5804   19.3084 C.3     1  UNL1        0.0174
     23 C         -10.2910  -19.9200   19.9805 C.3     1  UNL1        0.0187
     24 C         -11.3025  -19.8388   21.0851 C.3     1  UNL1        0.0721
     25 N         -11.8668  -18.4490   21.0958 N.3     1  UNL1       -0.2738
@<TRIPOS>BOND
     1    21    20    1
     2    21    22    1
     3    22    23    1
     4    23    24    1
     5    24    25    1
     6    25    19    1
     7    19    18    1
     8    18    17    1
     9    17    16    1
    10    16     1    1
    11     1     2   ar
    12     2     3   ar
    13     3     4   ar
    14     4     7    1
    15     7     8    2
    16     8     9    1
    17     9    10   am
    18    10    11    2
    19    10    12    1
    20    12    13    1
    21    14    13    1
    22     4     5   ar
    23     5     6   ar
    24    25    21    1
    25     6     1   ar
    26    14     7    1
    27    14    12    1
    28     9    15    1
@<TRIPOS>MOLECULE
*****
 25 28 0 0 0
SMALL
GASTEIGER

@<TRIPOS>ATOM
      1 C          -5.8619  -15.5834   25.9976 C.ar    1  UNL1        0.1386
      2 C          -4.8814  -16.6922   26.2409 C.ar    1  UNL1        0.0369
      3 C          -4.0016  -17.1736   25.1254 C.ar    1  UNL1        0.0043
      4 C          -4.1024  -16.5461   23.7666 C.ar    1  UNL1        0.0152
      5 C          -5.0829  -15.4374   23.5233 C.ar    1  UNL1        0.0043
      6 C          -5.9627  -14.9560   24.6388 C.ar    1  UNL1        0.0369
      7 C          -3.2227  -17.0275   22.6511 C.2     1  UNL1        0.0763
      8 N          -2.2546  -16.0852   21.9994 N.2     1  UNL1       -0.1836
      9 N          -1.3749  -16.5666   20.8839 N.am    1  UNL1       -0.2062
     10 C          -1.4633  -17.9903   20.4201 C.2     1  UNL1        0.2410
     11 O          -0.5835  -18.4717   19.3046 O.2     1  UNL1       -0.2734
     12 C          -2.4314  -18.9327   21.0718 C.3     1  UNL1        0.0841
     13 C          -3.3995  -19.8751   21.7235 C.3     1  UNL1        0.0160
     14 C          -3.3111  -18.4513   22.1873 C.3     1  UNL1        0.0509
     15 H          -0.7395  -15.9481   20.4561 H       1  UNL1        0.1772
     16 O          -6.7416  -15.1020   27.1131 O.3     1  UNL1       -0.4754
     17 C          -8.1400  -15.6281   27.2458 C.3     1  UNL1        0.2068
     18 C          -8.5530  -16.8584   26.4937 C.3     1  UNL1        0.0646
     19 C          -9.0484  -16.7438   25.0825 C.3     1  UNL1        0.0759
     20 C          -7.5900  -17.9223   22.4116 C.3     1  UNL1        0.0173
     21 C          -8.7828  -18.5167   23.0997 C.3     1  UNL1        0.0576
     22 C          -9.5149  -19.7572   22.6810 C.3     1  UNL1        0.0174
     23 C         -10.6377  -19.9823   23.6499 C.3     1  UNL1        0.0187
     24 C         -10.5996  -18.8808   24.6674 C.3     1  UNL1        0.0721
     25 N          -9.4533  -17.9750   24.3274 N.3     1  UNL1       -0.2738
@<TRIPOS>BOND
     1    21    20    1
     2    21    22    1
     3    22    23    1
     4    23    24    1
     5    24    25    1
     6    25    19    1
     7    19    18    1
     8    18    17    1
     9    17    16    1
    10    16     1    1
    11     1     2   ar
    12     2     3   ar
    13     3     4   ar
    14     4     7    1
    15     7     8    2
    16     8     9    1
    17     9    10   am
    18    10    11    2
    19    10    12    1
    20    12    13    1
    21    14    13    1
    22     4     5   ar
    23     5     6   ar
    24    25    21    1
    25     6     1   ar
    26    14     7    1
    27    14    12    1
    28     9    15    1
@<TRIPOS>MOLECULE
*****
 25 28 0 0 0
SMALL
GASTEIGER

@<TRIPOS>ATOM
      1 C          -5.9980  -16.9044   23.2438 C.ar    1  UNL1        0.1386
      2 C          -6.6443  -18.0562   22.5326 C.ar    1  UNL1        0.0369
      3 C          -8.1168  -18.2993   22.6829 C.ar    1  UNL1        0.0043
      4 C          -8.9430  -17.3907   23.5443 C.ar    1  UNL1        0.0152
      5 C          -8.2966  -16.2390   24.2554 C.ar    1  UNL1        0.0043
      6 C          -6.8241  -15.9959   24.1052 C.ar    1  UNL1        0.0369
      7 C         -10.4155  -17.6339   23.6946 C.2     1  UNL1        0.0763
      8 N         -10.9166  -18.5725   24.7518 N.2     1  UNL1       -0.1836
      9 N         -12.3891  -18.8157   24.9021 N.am    1  UNL1       -0.2062
     10 C         -13.3605  -18.1202   23.9951 C.2     1  UNL1        0.2410
     11 O         -14.8330  -18.3634   24.1454 O.2     1  UNL1       -0.2734
     12 C         -12.8594  -17.1815   22.9378 C.3     1  UNL1        0.0841
     13 C         -12.3583  -16.2428   21.8806 C.3     1  UNL1        0.0160
     14 C         -11.3869  -16.9383   22.7876 C.3     1  UNL1        0.0509
     15 H         -12.7180  -19.4318   25.5960 H       1  UNL1        0.1772
     16 O          -4.5254  -16.6612   23.0935 O.3     1  UNL1       -0.4754
     17 C          -3.5425  -17.5640   23.7782 C.3     1  UNL1        0.2068
     18 C          -2.2699  -17.9506   23.0846 C.3     1  UNL1        0.0646
     19 C          -2.2956  -18.9677   21.9824 C.3     1  UNL1        0.0759
     20 C           0.0999  -17.6792   20.1793 C.3     1  UNL1        0.0173
     21 C          -1.3074  -17.9309   19.7254 C.3     1  UNL1        0.0576
     22 C          -1.8608  -17.6347   18.3631 C.3     1  UNL1        0.0174
     23 C          -3.3039  -18.0438   18.3499 C.3     1  UNL1        0.0187
     24 C          -3.6424  -18.5929   19.7041 C.3     1  UNL1        0.0721
     25 N          -2.4086  -18.5232   20.5542 N.3     1  UNL1       -0.2738
@<TRIPOS>BOND
     1    21    20    1
     2    21    22    1
     3    22    23    1
     4    23    24    1
     5    24    25    1
     6    25    19    1
     7    19    18    1
     8    18    17    1
     9    17    16    1
    10    16     1    1
    11     1     2   ar
    12     2     3   ar
    13     3     4   ar
    14     4     7    1
    15     7     8    2
    16     8     9    1
    17     9    10   am
    18    10    11    2
    19    10    12    1
    20    12    13    1
    21    14    13    1
    22     4     5   ar
    23     5     6   ar
    24    25    21    1
    25     6     1   ar
    26    14     7    1
    27    14    12    1
    28     9    15    1
@<TRIPOS>MOLECULE
*****
 25 28 0 0 0
SMALL
GASTEIGER

@<TRIPOS>ATOM
      1 C          -9.4055  -19.5868   21.8260 C.ar    1  UNL1        0.1386
      2 C          -8.4015  -20.1220   22.8037 C.ar    1  UNL1        0.0369
      3 C          -6.9345  -19.9875   22.5215 C.ar    1  UNL1        0.0043
      4 C          -6.4713  -19.3179   21.2617 C.ar    1  UNL1        0.0152
      5 C          -7.4752  -18.7828   20.2840 C.ar    1  UNL1        0.0043
      6 C          -8.9423  -18.9172   20.5662 C.ar    1  UNL1        0.0369
      7 C          -5.0042  -19.1835   20.9795 C.2     1  UNL1        0.0763
      8 N          -4.4611  -19.5652   19.6344 N.2     1  UNL1       -0.1836
      9 N          -2.9940  -19.4307   19.3523 N.am    1  UNL1       -0.2062
     10 C          -2.0701  -18.9146   20.4152 C.2     1  UNL1        0.2410
     11 O          -0.6030  -18.7801   20.1331 O.2     1  UNL1       -0.2734
     12 C          -2.6132  -18.5328   21.7604 C.3     1  UNL1        0.0841
     13 C          -3.1563  -18.1511   23.1054 C.3     1  UNL1        0.0160
     14 C          -4.0803  -18.6672   22.0425 C.3     1  UNL1        0.0509
     15 H          -2.6375  -19.6813   18.4695 H       1  UNL1        0.1772
     16 O         -10.8725  -19.7213   22.1081 O.3     1  UNL1       -0.4754
     17 C         -11.4727  -19.0376   23.3007 C.3     1  UNL1        0.2068
     18 C         -10.7537  -17.8918   23.9489 C.3     1  UNL1        0.0646
     19 C          -9.8509  -18.1394   25.1209 C.3     1  UNL1        0.0759
     20 C          -7.9628  -16.3334   23.1655 C.3     1  UNL1        0.0173
     21 C          -8.0174  -16.2491   24.6621 C.3     1  UNL1        0.0576
     22 C          -7.2137  -15.3200   25.5228 C.3     1  UNL1        0.0174
     23 C          -7.5848  -15.5758   26.9534 C.3     1  UNL1        0.0187
     24 C          -8.6179  -16.6631   26.9770 C.3     1  UNL1        0.0721
     25 N          -8.8852  -17.0793   25.5609 N.3     1  UNL1       -0.2738
@<TRIPOS>BOND
     1    21    20    1
     2    21    22    1
     3    22    23    1
     4    23    24    1
     5    24    25    1
     6    25    19    1
     7    19    18    1
     8    18    17    1
     9    17    16    1
    10    16     1    1
    11     1     2   ar
    12     2     3   ar
    13     3     4   ar
    14     4     7    1
    15     7     8    2
    16     8     9    1
    17     9    10   am
    18    10    11    2
    19    10    12    1
    20    12    13    1
    21    14    13    1
    22     4     5   ar
    23     5     6   ar
    24    25    21    1
    25     6     1   ar
    26    14     7    1
    27    14    12    1
    28     9    15    1
