@<TRIPOS>MOLECULE
*****
 18 19 0 0 0
SMALL
GASTEIGER

@<TRIPOS>ATOM
      1 C         -11.1374  -17.9122   23.5232 C.ar    1  UNL1       -0.0187
      2 C         -12.4029  -18.3810   22.8685 C.ar    1  UNL1        0.0164
      3 C         -12.9155  -17.6848   21.6427 C.ar    1  UNL1        0.0986
      4 N         -12.1626  -16.5199   21.0716 N.ar    1  UNL1       -0.2423
      5 C         -10.8971  -16.0512   21.7263 C.ar    1  UNL1        0.0990
      6 C         -10.3845  -16.7473   22.9521 C.ar    1  UNL1        0.0212
      7 C          -9.1189  -16.2785   23.6069 C.ar    1  UNL1        0.0304
      8 C          -9.0094  -15.6471   24.9631 C.ar    1  UNL1        0.0067
      9 C          -7.5635  -15.3372   25.2147 C.ar    1  UNL1        0.0040
     10 C          -6.7794  -15.7770   24.0140 C.ar    1  UNL1        0.0230
     11 S          -7.7407  -16.3588   23.0203 S.2     1  UNL1       -0.0899
     12 C          -5.2947  -15.6563   23.8379 C.3     1  UNL1        0.0987
     13 N          -4.7304  -14.6070   22.9266 N.3     1  UNL1       -0.3170
     14 H          -5.0003  -14.8113   21.9644 H       1  UNL1        0.1192
     15 H          -3.7131  -14.6035   23.0009 H       1  UNL1        0.1192
     16 C         -10.6247  -18.6084   24.7490 C.3     1  UNL1        0.0265
     17 C          -9.0696  -20.2990   23.5352 C.3     1  UNL1        0.0004
     18 C         -10.0345  -19.9830   24.6393 C.3     1  UNL1        0.0047
@<TRIPOS>BOND
     1    17    18    1
     2    18    16    1
     3    16     1    1
     4     1     2   ar
     5     2     3   ar
     6     3     4   ar
     7     4     5   ar
     8     5     6   ar
     9     6     7    1
    10     7     8   ar
    11     8     9   ar
    12     9    10   ar
    13    10    12    1
    14    12    13    1
    15    10    11   ar
    16     6     1   ar
    17    11     7   ar
    18    13    14    1
    19    13    15    1
@<TRIPOS>MOLECULE
*****
 18 19 0 0 0
SMALL
GASTEIGER

@<TRIPOS>ATOM
      1 C          -7.3494  -15.9793   24.3491 C.ar    1  UNL1       -0.0187
      2 C          -5.8938  -15.6550   24.5103 C.ar    1  UNL1        0.0164
      3 C          -4.8651  -16.4123   23.7239 C.ar    1  UNL1        0.0986
      4 N          -5.2920  -17.4938   22.7763 N.ar    1  UNL1       -0.2423
      5 C          -6.7476  -17.8181   22.6151 C.ar    1  UNL1        0.0990
      6 C          -7.7763  -17.0608   23.4015 C.ar    1  UNL1        0.0212
      7 C          -9.2319  -17.3852   23.2402 C.ar    1  UNL1        0.0304
      8 C         -10.0775  -18.1519   24.2134 C.ar    1  UNL1        0.0067
      9 C         -11.4657  -18.2403   23.6520 C.ar    1  UNL1        0.0040
     10 C         -11.4781  -17.5282   22.3318 C.ar    1  UNL1        0.0230
     11 S         -10.0975  -16.9997   22.0773 S.2     1  UNL1       -0.0899
     12 C         -12.6629  -17.3720   21.4254 C.3     1  UNL1        0.0987
     13 N         -12.6211  -16.3807   20.3004 N.3     1  UNL1       -0.3170
     14 H         -12.5720  -15.4358   20.6815 H       1  UNL1        0.1192
     15 H         -13.4632  -16.4750   19.7327 H       1  UNL1        0.1192
     16 C          -8.3781  -15.2221   25.1354 C.3     1  UNL1        0.0265
     17 C          -8.3904  -16.6805   27.2855 C.3     1  UNL1        0.0004
     18 C          -8.4084  -15.3309   26.6311 C.3     1  UNL1        0.0047
@<TRIPOS>BOND
     1    17    18    1
     2    18    16    1
     3    16     1    1
     4     1     2   ar
     5     2     3   ar
     6     3     4   ar
     7     4     5   ar
     8     5     6   ar
     9     6     7    1
    10     7     8   ar
    11     8     9   ar
    12     9    10   ar
    13    10    12    1
    14    12    13    1
    15    10    11   ar
    16     6     1   ar
    17    11     7   ar
    18    13    14    1
    19    13    15    1
@<TRIPOS>MOLECULE
*****
 18 19 0 0 0
SMALL
GASTEIGER

@<TRIPOS>ATOM
      1 C          -9.3655  -18.3984   21.7595 C.ar    1  UNL1       -0.0187
      2 C         -10.1413  -18.9750   20.6125 C.ar    1  UNL1        0.0164
      3 C         -11.0034  -18.0849   19.7674 C.ar    1  UNL1        0.0986
      4 N         -11.0899  -16.6182   20.0692 N.ar    1  UNL1       -0.2423
      5 C         -10.3141  -16.0415   21.2162 C.ar    1  UNL1        0.0990
      6 C          -9.4519  -16.9317   22.0614 C.ar    1  UNL1        0.0212
      7 C          -8.6762  -16.3550   23.2084 C.ar    1  UNL1        0.0304
      8 C          -7.3275  -15.7042   23.1221 C.ar    1  UNL1        0.0067
      9 C          -6.9307  -15.2748   24.5035 C.ar    1  UNL1        0.0040
     10 C          -8.0342  -15.6603   25.4436 C.ar    1  UNL1        0.0230
     11 S          -9.1129  -16.3279   24.6432 S.2     1  UNL1       -0.0899
     12 C          -8.0552  -15.4203   26.9241 C.3     1  UNL1        0.0987
     13 N          -6.9301  -14.6753   27.5792 N.3     1  UNL1       -0.3170
     14 H          -6.0725  -15.2226   27.5071 H       1  UNL1        0.1192
     15 H          -7.1525  -14.5195   28.5624 H       1  UNL1        0.1192
     16 C          -8.5033  -19.2885   22.6047 C.3     1  UNL1        0.0265
     17 C         -10.4597  -19.9467   24.1825 C.3     1  UNL1        0.0004
     18 C          -9.1351  -20.2633   23.5537 C.3     1  UNL1        0.0047
@<TRIPOS>BOND
     1    17    18    1
     2    18    16    1
     3    16     1    1
     4     1     2   ar
     5     2     3   ar
     6     3     4   ar
     7     4     5   ar
     8     5     6   ar
     9     6     7    1
    10     7     8   ar
    11     8     9   ar
    12     9    10   ar
    13    10    12    1
    14    12    13    1
    15    10    11   ar
    16     6     1   ar
    17    11     7   ar
    18    13    14    1
    19    13    15    1
@<TRIPOS>MOLECULE
*****
 18 19 0 0 0
SMALL
GASTEIGER

@<TRIPOS>ATOM
      1 C          -6.2827  -16.3521   23.8400 C.ar    1  UNL1       -0.0187
      2 C          -4.7845  -16.4241   23.8297 C.ar    1  UNL1        0.0164
      3 C          -4.0896  -17.4705   23.0100 C.ar    1  UNL1        0.0986
      4 N          -4.8928  -18.4449   22.2005 N.ar    1  UNL1       -0.2423
      5 C          -6.3910  -18.3729   22.2108 C.ar    1  UNL1        0.0990
      6 C          -7.0860  -17.3265   23.0305 C.ar    1  UNL1        0.0212
      7 C          -8.5842  -17.2545   23.0407 C.ar    1  UNL1        0.0304
      8 C          -9.4240  -16.2553   22.3015 C.ar    1  UNL1        0.0067
      9 C         -10.8645  -16.5524   22.5959 C.ar    1  UNL1        0.0040
     10 C         -10.9151  -17.7352   23.5171 C.ar    1  UNL1        0.0230
     11 S          -9.5058  -18.1691   23.7920 S.2     1  UNL1       -0.0899
     12 C         -12.1568  -18.3722   24.0668 C.3     1  UNL1        0.0987
     13 N         -13.5048  -17.9336   23.5764 N.3     1  UNL1       -0.3170
     14 H         -13.6706  -16.9669   23.8564 H       1  UNL1        0.1192
     15 H         -14.2249  -18.5327   23.9800 H       1  UNL1        0.1192
     16 C          -6.9777  -15.3056   24.6597 C.3     1  UNL1        0.0265
     17 C          -8.2183  -16.0364   26.8223 C.3     1  UNL1        0.0004
     18 C          -7.0205  -15.4294   26.1539 C.3     1  UNL1        0.0047
@<TRIPOS>BOND
     1    17    18    1
     2    18    16    1
     3    16     1    1
     4     1     2   ar
     5     2     3   ar
     6     3     4   ar
     7     4     5   ar
     8     5     6   ar
     9     6     7    1
    10     7     8   ar
    11     8     9   ar
    12     9    10   ar
    13    10    12    1
    14    12    13    1
    15    10    11   ar
    16     6     1   ar
    17    11     7   ar
    18    13    14    1
    19    13    15    1
@<TRIPOS>MOLECULE
*****
 18 19 0 0 0
SMALL
GASTEIGER

@<TRIPOS>ATOM
      1 C          -9.2217  -18.7415   21.5331 C.ar    1  UNL1       -0.0187
      2 C          -9.9491  -19.3022   20.3472 C.ar    1  UNL1        0.0164
      3 C         -11.0110  -18.4906   19.6661 C.ar    1  UNL1        0.0986
      4 N         -11.3454  -17.1183   20.1709 N.ar    1  UNL1       -0.2423
      5 C         -10.6180  -16.5576   21.3568 C.ar    1  UNL1        0.0990
      6 C          -9.5561  -17.3691   22.0379 C.ar    1  UNL1        0.0212
      7 C          -8.8287  -16.8083   23.2238 C.ar    1  UNL1        0.0304
      8 C          -9.3743  -16.6858   24.6157 C.ar    1  UNL1        0.0067
      9 C          -8.3108  -16.0734   25.4782 C.ar    1  UNL1        0.0040
     10 C          -7.1079  -15.8173   24.6193 C.ar    1  UNL1        0.0230
     11 S          -7.4280  -16.2716   23.2261 S.2     1  UNL1       -0.0899
     12 C          -5.8124  -15.2132   25.0739 C.3     1  UNL1        0.0987
     13 N          -5.7660  -14.3970   26.3315 N.3     1  UNL1       -0.3170
     14 H          -6.3159  -13.5471   26.2058 H       1  UNL1        0.1192
     15 H          -4.7990  -14.1485   26.5401 H       1  UNL1        0.1192
     16 C          -8.1599  -19.5530   22.2142 C.3     1  UNL1        0.0265
     17 C          -5.5640  -19.5529   22.1092 C.3     1  UNL1        0.0004
     18 C          -6.8891  -19.8847   21.4896 C.3     1  UNL1        0.0047
@<TRIPOS>BOND
     1    17    18    1
     2    18    16    1
     3    16     1    1
     4     1     2   ar
     5     2     3   ar
     6     3     4   ar
     7     4     5   ar
     8     5     6   ar
     9     6     7    1
    10     7     8   ar
    11     8     9   ar
    12     9    10   ar
    13    10    12    1
    14    12    13    1
    15    10    11   ar
    16     6     1   ar
    17    11     7   ar
    18    13    14    1
    19    13    15    1
@<TRIPOS>MOLECULE
*****
 18 19 0 0 0
SMALL
GASTEIGER

@<TRIPOS>ATOM
      1 C          -4.3748  -18.6889   22.4604 C.ar    1  UNL1       -0.0187
      2 C          -2.9445  -18.9734   22.1091 C.ar    1  UNL1        0.0164
      3 C          -2.6205  -19.8572   20.9412 C.ar    1  UNL1        0.0986
      4 N          -3.7268  -20.4565   20.1246 N.ar    1  UNL1       -0.2423
      5 C          -5.1570  -20.1721   20.4759 C.ar    1  UNL1        0.0990
      6 C          -5.4810  -19.2883   21.6437 C.ar    1  UNL1        0.0212
      7 C          -6.9114  -19.0038   21.9949 C.ar    1  UNL1        0.0304
      8 C          -7.8575  -19.9495   22.6736 C.ar    1  UNL1        0.0067
      9 C          -9.1775  -19.2539   22.8272 C.ar    1  UNL1        0.0040
     10 C          -9.0472  -17.8782   22.2435 C.ar    1  UNL1        0.0230
     11 S          -7.6467  -17.7237   21.7292 S.2     1  UNL1       -0.0899
     12 C         -10.1278  -16.8395   22.1846 C.3     1  UNL1        0.0987
     13 N          -9.9562  -15.6272   21.3181 N.3     1  UNL1       -0.3170
     14 H          -9.1910  -15.0572   21.6785 H       1  UNL1        0.1192
     15 H         -10.8179  -15.0814   21.3224 H       1  UNL1        0.1192
     16 C          -4.6987  -17.8051   23.6282 C.3     1  UNL1        0.0265
     17 C          -5.3048  -15.3997   24.4005 C.3     1  UNL1        0.0004
     18 C          -4.5139  -16.3206   23.5193 C.3     1  UNL1        0.0047
@<TRIPOS>BOND
     1    17    18    1
     2    18    16    1
     3    16     1    1
     4     1     2   ar
     5     2     3   ar
     6     3     4   ar
     7     4     5   ar
     8     5     6   ar
     9     6     7    1
    10     7     8   ar
    11     8     9   ar
    12     9    10   ar
    13    10    12    1
    14    12    13    1
    15    10    11   ar
    16     6     1   ar
    17    11     7   ar
    18    13    14    1
    19    13    15    1
@<TRIPOS>MOLECULE
*****
 18 19 0 0 0
SMALL
GASTEIGER

@<TRIPOS>ATOM
      1 C         -12.1496   -1.8427   18.6159 C.ar    1  UNL1       -0.0187
      2 C         -12.5456   -0.4198   18.3538 C.ar    1  UNL1        0.0164
      3 C         -11.9144    0.3384   17.2239 C.ar    1  UNL1        0.0986
      4 N         -10.8873   -0.3263   16.3560 N.ar    1  UNL1       -0.2423
      5 C         -10.4914   -1.7491   16.6181 C.ar    1  UNL1        0.0990
      6 C         -11.1225   -2.5073   17.7480 C.ar    1  UNL1        0.0212
      7 C         -10.7265   -3.9302   18.0100 C.ar    1  UNL1        0.0304
      8 C          -9.7397   -4.3955   19.0394 C.ar    1  UNL1        0.0067
      9 C          -9.6511   -5.8905   18.9542 C.ar    1  UNL1        0.0040
     10 C         -10.5833   -6.3492   17.8722 C.ar    1  UNL1        0.0230
     11 S         -11.2479   -5.1376   17.2886 S.2     1  UNL1       -0.0899
     12 C         -10.8108   -7.7698   17.4481 C.3     1  UNL1        0.0987
     13 N          -9.8414   -8.8390   17.8570 N.3     1  UNL1       -0.3170
     14 H          -8.9402   -8.6697   17.4102 H       1  UNL1        0.1192
     15 H         -10.1982   -9.7499   17.5684 H       1  UNL1        0.1192
     16 C         -12.7808   -2.6009   19.7458 C.3     1  UNL1        0.0265
     17 C         -13.9974   -4.8465   20.2219 C.3     1  UNL1        0.0004
     18 C         -13.9107   -3.5492   19.4740 C.3     1  UNL1        0.0047
@<TRIPOS>BOND
     1    17    18    1
     2    18    16    1
     3    16     1    1
     4     1     2   ar
     5     2     3   ar
     6     3     4   ar
     7     4     5   ar
     8     5     6   ar
     9     6     7    1
    10     7     8   ar
    11     8     9   ar
    12     9    10   ar
    13    10    12    1
    14    12    13    1
    15    10    11   ar
    16     6     1   ar
    17    11     7   ar
    18    13    14    1
    19    13    15    1
@<TRIPOS>MOLECULE
*****
 18 19 0 0 0
SMALL
GASTEIGER

@<TRIPOS>ATOM
      1 C          -8.2208  -18.7179   21.3724 C.ar    1  UNL1       -0.0187
      2 C          -8.6490  -19.4965   20.1639 C.ar    1  UNL1        0.0164
      3 C          -9.9123  -19.1287   19.4437 C.ar    1  UNL1        0.0986
      4 N         -10.7475  -17.9824   19.9320 N.ar    1  UNL1       -0.2423
      5 C         -10.3193  -17.2039   21.1405 C.ar    1  UNL1        0.0990
      6 C          -9.0559  -17.5716   21.8607 C.ar    1  UNL1        0.0212
      7 C          -8.6277  -16.7931   23.0693 C.ar    1  UNL1        0.0304
      8 C          -7.8151  -15.5323   23.0635 C.ar    1  UNL1        0.0067
      9 C          -7.6222  -15.0987   24.4864 C.ar    1  UNL1        0.0040
     10 C          -8.3156  -16.0914   25.3717 C.ar    1  UNL1        0.0230
     11 S          -8.9371  -17.1386   24.4958 S.2     1  UNL1       -0.0899
     12 C          -8.3768  -16.0451   26.8697 C.3     1  UNL1        0.0987
     13 N          -8.1772  -14.7438   27.5886 N.3     1  UNL1       -0.3170
     14 H          -7.2203  -14.4203   27.4467 H       1  UNL1        0.1192
     15 H          -8.3470  -14.8766   28.5855 H       1  UNL1        0.1192
     16 C          -6.9575  -19.0857   22.0926 C.3     1  UNL1        0.0265
     17 C          -5.0202  -20.0777   20.6738 C.3     1  UNL1        0.0004
     18 C          -6.1525  -20.2674   21.6392 C.3     1  UNL1        0.0047
@<TRIPOS>BOND
     1    17    18    1
     2    18    16    1
     3    16     1    1
     4     1     2   ar
     5     2     3   ar
     6     3     4   ar
     7     4     5   ar
     8     5     6   ar
     9     6     7    1
    10     7     8   ar
    11     8     9   ar
    12     9    10   ar
    13    10    12    1
    14    12    13    1
    15    10    11   ar
    16     6     1   ar
    17    11     7   ar
    18    13    14    1
    19    13    15    1
@<TRIPOS>MOLECULE
*****
 18 19 0 0 0
SMALL
GASTEIGER

@<TRIPOS>ATOM
      1 C          -9.7927  -16.8294   21.9636 C.ar    1  UNL1       -0.0187
      2 C         -11.0438  -16.0521   21.6803 C.ar    1  UNL1        0.0164
      3 C         -11.9774  -16.5025   20.5961 C.ar    1  UNL1        0.0986
      4 N         -11.6598  -17.7302   19.7951 N.ar    1  UNL1       -0.2423
      5 C         -10.4086  -18.5076   20.0783 C.ar    1  UNL1        0.0990
      6 C          -9.4751  -18.0572   21.1626 C.ar    1  UNL1        0.0212
      7 C          -8.2239  -18.8347   21.4459 C.ar    1  UNL1        0.0304
      8 C          -8.0621  -19.8926   22.4968 C.ar    1  UNL1        0.0067
      9 C          -6.6531  -20.4024   22.4283 C.ar    1  UNL1        0.0040
     10 C          -5.9440  -19.6595   21.3350 C.ar    1  UNL1        0.0230
     11 S          -6.9148  -18.6906   20.7278 S.2     1  UNL1       -0.0899
     12 C          -4.5150  -19.8517   20.9215 C.3     1  UNL1        0.0987
     13 N          -4.1824  -20.7519   19.7686 N.3     1  UNL1       -0.3170
     14 H          -4.4217  -21.7140   20.0084 H       1  UNL1        0.1192
     15 H          -3.1847  -20.6900   19.5658 H       1  UNL1        0.1192
     16 C          -8.8591  -16.3790   23.0479 C.3     1  UNL1        0.0265
     17 C          -8.4353  -15.8146   25.5482 C.3     1  UNL1        0.0004
     18 C          -9.3000  -16.4175   24.4810 C.3     1  UNL1        0.0047
@<TRIPOS>BOND
     1    17    18    1
     2    18    16    1
     3    16     1    1
     4     1     2   ar
     5     2     3   ar
     6     3     4   ar
     7     4     5   ar
     8     5     6   ar
     9     6     7    1
    10     7     8   ar
    11     8     9   ar
    12     9    10   ar
    13    10    12    1
    14    12    13    1
    15    10    11   ar
    16     6     1   ar
    17    11     7   ar
    18    13    14    1
    19    13    15    1
