@<TRIPOS>MOLECULE
*****
 34 38 0 0 0
SMALL
GASTEIGER

@<TRIPOS>ATOM
      1 C          -8.6425  -17.1290   23.5930 C.3     1  UNL1        0.0899
      2 C          -9.2774  -17.8355   24.7539 C.3     1  UNL1        0.0287
      3 C          -9.0988  -17.3029   26.1448 C.3     1  UNL1        0.0588
      4 C          -8.6705  -16.4493   27.3015 C.3     1  UNL1        0.0174
      5 C          -7.8343  -15.3260   26.7639 C.3     1  UNL1        0.0174
      6 C          -7.7458  -15.4854   25.2750 C.3     1  UNL1        0.0588
      7 C          -7.8290  -15.8899   23.8229 C.3     1  UNL1        0.0287
      8 N          -8.5273  -16.7072   24.8924 N.3     1  UNL1       -0.2694
      9 C          -9.3168  -18.2590   22.8731 C.ar    1  UNL1       -0.0145
     10 C          -9.7307  -19.4879   23.6270 C.ar    1  UNL1       -0.0038
     11 C         -10.4051  -20.6180   22.9071 C.ar    1  UNL1       -0.0003
     12 C         -10.6655  -20.5191   21.4332 C.ar    1  UNL1       -0.0000
     13 C         -10.2516  -19.2901   20.6792 C.ar    1  UNL1       -0.0003
     14 C          -9.5773  -18.1602   21.3992 C.ar    1  UNL1       -0.0038
     15 N          -7.8879  -17.6519   20.9885 N.am    1  UNL1       -0.3286
     16 C          -8.2419  -16.8150   22.1820 C.2     1  UNL1        0.2223
     17 O          -8.1882  -15.4896   21.9315 O.2     1  UNL1       -0.2750
     18 H          -7.6494  -17.2190   20.1370 H       1  UNL1        0.1450
     19 H          -7.8940  -18.6340   21.0567 H       1  UNL1        0.1450
     20 C          -8.7059  -17.2398   23.5015 C.3     1  UNL1        0.1045
     21 C          -7.6711  -18.1492   22.9080 C.ar    1  UNL1        0.0070
     22 C          -8.0831  -19.4544   22.2940 C.ar    1  UNL1       -0.0018
     23 C          -7.0482  -20.3637   21.7005 C.ar    1  UNL1       -0.0002
     24 C          -5.6016  -19.9681   21.7210 C.ar    1  UNL1        0.0008
     25 C          -5.1896  -18.6629   22.3350 C.ar    1  UNL1        0.0111
     26 C          -6.2244  -17.7535   22.9285 C.ar    1  UNL1        0.0553
     27 CL         -5.8124  -16.4484   23.5425 Cl      1  UNL1       -0.0825
     28 C          -9.9193  -16.8630   22.7042 C.ar    1  UNL1        0.0070
     29 C          -9.7664  -16.1062   21.4182 C.ar    1  UNL1       -0.0018
     30 C         -10.9797  -15.7295   20.6209 C.ar    1  UNL1       -0.0002
     31 C         -12.3460  -16.1095   21.1096 C.ar    1  UNL1        0.0008
     32 C         -12.4990  -16.8663   22.3957 C.ar    1  UNL1        0.0111
     33 C         -11.2855  -17.2431   23.1929 C.ar    1  UNL1        0.0553
     34 CL        -11.9622  -17.9503   24.3296 Cl      1  UNL1       -0.0825
@<TRIPOS>BOND
     1    15    16   am
     2    16    17    2
     3    16     1    1
     4     1     9    1
     5     9    10   ar
     6    10    11   ar
     7    11    12   ar
     8    12    13   ar
     9    13    14   ar
    10     1     2    1
    11     2     3    1
    12     3     4    1
    13     4     5    1
    14     5     6    1
    15     6     7    1
    16     6     8    1
    17     8    20    1
    18    20    21    1
    19    21    22   ar
    20    22    23   ar
    21    23    24   ar
    22    24    25   ar
    23    25    26   ar
    24    26    27    1
    25    20    28    1
    26    28    29   ar
    27    29    30   ar
    28    30    31   ar
    29    31    32   ar
    30    32    33   ar
    31    33    34    1
    32     7     1    1
    33    26    21   ar
    34    33    28   ar
    35    14     9   ar
    36     8     3    1
    37    15    18    1
    38    15    19    1
@<TRIPOS>MOLECULE
*****
 34 38 0 0 0
SMALL
GASTEIGER

@<TRIPOS>ATOM
      1 C          -8.6129  -17.1369   23.6162 C.3     1  UNL1        0.0899
      2 C          -9.2566  -17.8476   24.7696 C.3     1  UNL1        0.0287
      3 C          -9.0767  -17.3284   26.1653 C.3     1  UNL1        0.0588
      4 C          -8.6438  -16.4883   27.3301 C.3     1  UNL1        0.0174
      5 C          -7.7966  -15.3679   26.8041 C.3     1  UNL1        0.0174
      6 C          -7.7059  -15.5154   25.3141 C.3     1  UNL1        0.0588
      7 C          -7.7892  -15.9069   23.8585 C.3     1  UNL1        0.0287
      8 N          -8.4971  -16.7271   24.9193 N.3     1  UNL1       -0.2694
      9 C          -9.2953  -18.2548   22.8851 C.ar    1  UNL1       -0.0145
     10 C          -9.7001  -19.4965   23.6229 C.ar    1  UNL1       -0.0038
     11 C         -10.3825  -20.6145   22.8919 C.ar    1  UNL1       -0.0003
     12 C         -10.6601  -20.4908   21.4230 C.ar    1  UNL1       -0.0000
     13 C         -10.2553  -19.2491   20.6851 C.ar    1  UNL1       -0.0003
     14 C          -9.5729  -18.1312   21.4162 C.ar    1  UNL1       -0.0038
     15 N          -7.8812  -17.6440   21.0020 N.am    1  UNL1       -0.3286
     16 C          -8.2062  -16.8144   22.2088 C.2     1  UNL1        0.2223
     17 O          -8.1120  -15.4877   21.9778 O.2     1  UNL1       -0.2750
     18 H          -7.6316  -17.2061   20.1563 H       1  UNL1        0.1450
     19 H          -7.9176  -18.6263   21.0557 H       1  UNL1        0.1450
     20 C          -8.6770  -17.2463   23.5236 C.3     1  UNL1        0.1045
     21 C          -9.8882  -16.8570   22.7289 C.ar    1  UNL1        0.0070
     22 C          -9.7291  -16.1236   21.4301 C.ar    1  UNL1       -0.0018
     23 C         -10.9404  -15.7344   20.6354 C.ar    1  UNL1       -0.0002
     24 C         -12.3105  -16.0784   21.1395 C.ar    1  UNL1        0.0008
     25 C         -12.4695  -16.8119   22.4383 C.ar    1  UNL1        0.0111
     26 C         -11.2584  -17.2011   23.2330 C.ar    1  UNL1        0.0553
     27 CL        -11.4175  -17.9345   24.5318 Cl      1  UNL1       -0.0825
     28 C          -7.6458  -18.1549   22.9226 C.ar    1  UNL1        0.0070
     29 C          -8.0627  -19.4540   22.2993 C.ar    1  UNL1       -0.0018
     30 C          -7.0315  -20.3624   21.6983 C.ar    1  UNL1       -0.0002
     31 C          -5.5834  -19.9719   21.7206 C.ar    1  UNL1        0.0008
     32 C          -5.1665  -18.6727   22.3439 C.ar    1  UNL1        0.0111
     33 C          -6.1978  -17.7642   22.9449 C.ar    1  UNL1        0.0553
     34 CL         -5.2954  -16.6586   23.4070 Cl      1  UNL1       -0.0825
@<TRIPOS>BOND
     1    15    16   am
     2    16    17    2
     3    16     1    1
     4     1     9    1
     5     9    10   ar
     6    10    11   ar
     7    11    12   ar
     8    12    13   ar
     9    13    14   ar
    10     1     2    1
    11     2     3    1
    12     3     4    1
    13     4     5    1
    14     5     6    1
    15     6     7    1
    16     6     8    1
    17     8    20    1
    18    20    21    1
    19    21    22   ar
    20    22    23   ar
    21    23    24   ar
    22    24    25   ar
    23    25    26   ar
    24    26    27    1
    25    20    28    1
    26    28    29   ar
    27    29    30   ar
    28    30    31   ar
    29    31    32   ar
    30    32    33   ar
    31    33    34    1
    32     7     1    1
    33    26    21   ar
    34    33    28   ar
    35    14     9   ar
    36     8     3    1
    37    15    18    1
    38    15    19    1
@<TRIPOS>MOLECULE
*****
 34 38 0 0 0
SMALL
GASTEIGER

@<TRIPOS>ATOM
      1 C          -8.2501  -17.8838   22.4971 C.3     1  UNL1        0.0899
      2 C          -8.3540  -19.3789   22.5591 C.3     1  UNL1        0.0287
      3 C          -7.2017  -20.2299   22.1140 C.3     1  UNL1        0.0588
      4 C          -5.8632  -20.6575   21.5890 C.3     1  UNL1        0.0174
      5 C          -5.0781  -19.4224   21.2604 C.3     1  UNL1        0.0174
      6 C          -5.9313  -18.2314   21.5822 C.3     1  UNL1        0.0588
      7 C          -6.9940  -17.2397   21.9899 C.3     1  UNL1        0.0287
      8 N          -7.2438  -18.7305   22.1097 N.3     1  UNL1       -0.2694
      9 C          -9.6375  -18.0258   23.0494 C.ar    1  UNL1       -0.0145
     10 C         -10.5704  -16.8513   23.0447 C.ar    1  UNL1       -0.0038
     11 C         -11.9579  -16.9933   23.5970 C.ar    1  UNL1       -0.0003
     12 C         -12.4122  -18.3098   24.1540 C.ar    1  UNL1       -0.0000
     13 C         -11.4793  -19.4844   24.1587 C.ar    1  UNL1       -0.0003
     14 C         -10.0919  -19.3424   23.6064 C.ar    1  UNL1       -0.0038
     15 N          -9.4667  -15.6636   23.6001 N.am    1  UNL1       -0.3286
     16 C          -8.6281  -16.4380   22.6269 C.2     1  UNL1        0.2223
     17 O          -8.0978  -15.6650   21.6556 O.2     1  UNL1       -0.2750
     18 H          -9.5803  -14.6921   23.4878 H       1  UNL1        0.1450
     19 H          -9.9035  -16.1267   24.3510 H       1  UNL1        0.1450
     20 C          -8.3961  -17.8795   22.5549 C.3     1  UNL1        0.1045
     21 C          -9.4737  -17.5069   21.5803 C.ar    1  UNL1        0.0070
     22 C          -9.9045  -16.0760   21.4494 C.ar    1  UNL1       -0.0018
     23 C         -10.9822  -15.7035   20.4748 C.ar    1  UNL1       -0.0002
     24 C         -11.6290  -16.7616   19.6311 C.ar    1  UNL1        0.0008
     25 C         -11.1982  -18.1925   19.7621 C.ar    1  UNL1        0.0111
     26 C         -10.1206  -18.5651   20.7367 C.ar    1  UNL1        0.0553
     27 CL         -9.6899  -19.9960   20.8676 Cl      1  UNL1       -0.0825
     28 C          -8.4707  -17.4012   23.9747 C.ar    1  UNL1        0.0070
     29 C          -9.4508  -18.0228   24.9250 C.ar    1  UNL1       -0.0018
     30 C          -9.5254  -17.5445   26.3446 C.ar    1  UNL1       -0.0002
     31 C          -8.6199  -16.4446   26.8141 C.ar    1  UNL1        0.0008
     32 C          -7.6398  -15.8230   25.8638 C.ar    1  UNL1        0.0111
     33 C          -7.5652  -16.3014   24.4441 C.ar    1  UNL1        0.0553
     34 CL         -6.4782  -15.3945   23.9479 Cl      1  UNL1       -0.0825
@<TRIPOS>BOND
     1    15    16   am
     2    16    17    2
     3    16     1    1
     4     1     9    1
     5     9    10   ar
     6    10    11   ar
     7    11    12   ar
     8    12    13   ar
     9    13    14   ar
    10     1     2    1
    11     2     3    1
    12     3     4    1
    13     4     5    1
    14     5     6    1
    15     6     7    1
    16     6     8    1
    17     8    20    1
    18    20    21    1
    19    21    22   ar
    20    22    23   ar
    21    23    24   ar
    22    24    25   ar
    23    25    26   ar
    24    26    27    1
    25    20    28    1
    26    28    29   ar
    27    29    30   ar
    28    30    31   ar
    29    31    32   ar
    30    32    33   ar
    31    33    34    1
    32     7     1    1
    33    26    21   ar
    34    33    28   ar
    35    14     9   ar
    36     8     3    1
    37    15    18    1
    38    15    19    1
@<TRIPOS>MOLECULE
*****
 34 38 0 0 0
SMALL
GASTEIGER

@<TRIPOS>ATOM
      1 C          -8.2457  -17.8671   22.4907 C.3     1  UNL1        0.0899
      2 C          -8.3415  -19.3636   22.5249 C.3     1  UNL1        0.0287
      3 C          -7.1809  -20.1999   22.0738 C.3     1  UNL1        0.0588
      4 C          -5.8358  -20.6106   21.5521 C.3     1  UNL1        0.0174
      5 C          -5.0551  -19.3654   21.2522 C.3     1  UNL1        0.0174
      6 C          -5.9177  -18.1851   21.5886 C.3     1  UNL1        0.0588
      7 C          -6.9893  -17.2069   22.0054 C.3     1  UNL1        0.0287
      8 N          -7.2315  -18.7010   22.0963 N.3     1  UNL1       -0.2694
      9 C          -9.6366  -18.0268   23.0290 C.ar    1  UNL1       -0.0145
     10 C         -10.0896  -19.3571   23.5537 C.ar    1  UNL1       -0.0038
     11 C         -11.4806  -19.5168   24.0920 C.ar    1  UNL1       -0.0003
     12 C         -12.4185  -18.3463   24.1056 C.ar    1  UNL1       -0.0000
     13 C         -11.9655  -17.0160   23.5810 C.ar    1  UNL1       -0.0003
     14 C         -10.5746  -16.8563   23.0427 C.ar    1  UNL1       -0.0038
     15 N          -9.4364  -15.6647   23.6560 N.am    1  UNL1       -0.3286
     16 C          -8.6330  -16.4260   22.6435 C.2     1  UNL1        0.2223
     17 O          -8.1539  -15.6433   21.6536 O.2     1  UNL1       -0.2750
     18 H          -9.5651  -14.6940   23.5533 H       1  UNL1        0.1450
     19 H          -9.8350  -16.1356   24.4232 H       1  UNL1        0.1450
     20 C          -8.3922  -17.8647   22.5474 C.3     1  UNL1        0.1045
     21 C          -8.4793  -17.4100   23.9742 C.ar    1  UNL1        0.0070
     22 C          -9.4904  -18.0241   24.8966 C.ar    1  UNL1       -0.0018
     23 C          -9.5774  -17.5694   26.3234 C.ar    1  UNL1       -0.0002
     24 C          -8.6536  -16.5008   26.8278 C.ar    1  UNL1        0.0008
     25 C          -7.6426  -15.8868   25.9054 C.ar    1  UNL1        0.0111
     26 C          -7.5554  -16.3414   24.4786 C.ar    1  UNL1        0.0553
     27 CL         -6.5444  -15.7273   23.5562 Cl      1  UNL1       -0.0825
     28 C          -9.4657  -17.4830   21.5717 C.ar    1  UNL1        0.0070
     29 C          -9.8790  -16.0476   21.4350 C.ar    1  UNL1       -0.0018
     30 C         -10.9524  -15.6659   20.4593 C.ar    1  UNL1       -0.0002
     31 C         -11.6126  -16.7196   19.6204 C.ar    1  UNL1        0.0008
     32 C         -11.1993  -18.1551   19.7571 C.ar    1  UNL1        0.0111
     33 C         -10.1258  -18.5367   20.7329 C.ar    1  UNL1        0.0553
     34 CL        -10.0987  -20.0159   20.4849 Cl      1  UNL1       -0.0825
@<TRIPOS>BOND
     1    15    16   am
     2    16    17    2
     3    16     1    1
     4     1     9    1
     5     9    10   ar
     6    10    11   ar
     7    11    12   ar
     8    12    13   ar
     9    13    14   ar
    10     1     2    1
    11     2     3    1
    12     3     4    1
    13     4     5    1
    14     5     6    1
    15     6     7    1
    16     6     8    1
    17     8    20    1
    18    20    21    1
    19    21    22   ar
    20    22    23   ar
    21    23    24   ar
    22    24    25   ar
    23    25    26   ar
    24    26    27    1
    25    20    28    1
    26    28    29   ar
    27    29    30   ar
    28    30    31   ar
    29    31    32   ar
    30    32    33   ar
    31    33    34    1
    32     7     1    1
    33    26    21   ar
    34    33    28   ar
    35    14     9   ar
    36     8     3    1
    37    15    18    1
    38    15    19    1
@<TRIPOS>MOLECULE
*****
 34 38 0 0 0
SMALL
GASTEIGER

@<TRIPOS>ATOM
      1 C          -9.1087  -17.0063   23.0300 C.3     1  UNL1        0.0899
      2 C          -7.7354  -17.2045   22.4602 C.3     1  UNL1        0.0287
      3 C          -6.5762  -16.4268   23.0093 C.3     1  UNL1        0.0588
      4 C          -5.7570  -15.4778   23.8327 C.3     1  UNL1        0.0174
      5 C          -6.6735  -14.8000   24.8077 C.3     1  UNL1        0.0174
      6 C          -8.0592  -15.3301   24.5867 C.3     1  UNL1        0.0588
      7 C          -9.3229  -16.0304   24.1488 C.3     1  UNL1        0.0287
      8 N          -7.9991  -16.3356   23.4753 N.3     1  UNL1       -0.2694
      9 C          -9.4076  -18.0377   21.9827 C.ar    1  UNL1       -0.0145
     10 C         -10.6026  -18.9322   22.1305 C.ar    1  UNL1       -0.0038
     11 C         -10.9016  -19.9637   21.0832 C.ar    1  UNL1       -0.0003
     12 C         -10.0054  -20.1006   19.8881 C.ar    1  UNL1       -0.0000
     13 C          -8.8104  -19.2061   19.7403 C.ar    1  UNL1       -0.0003
     14 C          -8.5115  -18.1747   20.7876 C.ar    1  UNL1       -0.0038
     15 N         -11.5237  -18.3362   23.1899 N.am    1  UNL1       -0.3286
     16 C         -10.5859  -17.1663   23.2360 C.2     1  UNL1        0.2223
     17 O         -11.2070  -16.0035   23.5263 O.2     1  UNL1       -0.2750
     18 H         -12.4839  -18.2045   23.3629 H       1  UNL1        0.1450
     19 H         -11.1790  -19.2357   22.9867 H       1  UNL1        0.1450
     20 C          -9.1583  -17.1132   22.9262 C.3     1  UNL1        0.1045
     21 C          -9.9396  -16.5748   21.7644 C.ar    1  UNL1        0.0070
     22 C         -11.2313  -17.2240   21.3639 C.ar    1  UNL1       -0.0018
     23 C         -12.0126  -16.6855   20.2021 C.ar    1  UNL1       -0.0002
     24 C         -11.5024  -15.4981   19.4409 C.ar    1  UNL1        0.0008
     25 C         -10.2107  -14.8490   19.8415 C.ar    1  UNL1        0.0111
     26 C          -9.4293  -15.3873   21.0032 C.ar    1  UNL1        0.0553
     27 CL         -8.1377  -14.7382   21.4036 Cl      1  UNL1       -0.0825
     28 C          -9.5361  -18.4293   23.5388 C.ar    1  UNL1        0.0070
     29 C         -10.7701  -18.5360   24.3849 C.ar    1  UNL1       -0.0018
     30 C         -11.1479  -19.8519   24.9975 C.ar    1  UNL1       -0.0002
     31 C         -10.2918  -21.0613   24.7640 C.ar    1  UNL1        0.0008
     32 C          -9.0577  -20.9546   23.9179 C.ar    1  UNL1        0.0111
     33 C          -8.6800  -19.6385   23.3053 C.ar    1  UNL1        0.0553
     34 CL         -7.4289  -20.0616   22.5939 Cl      1  UNL1       -0.0825
@<TRIPOS>BOND
     1    15    16   am
     2    16    17    2
     3    16     1    1
     4     1     9    1
     5     9    10   ar
     6    10    11   ar
     7    11    12   ar
     8    12    13   ar
     9    13    14   ar
    10     1     2    1
    11     2     3    1
    12     3     4    1
    13     4     5    1
    14     5     6    1
    15     6     7    1
    16     6     8    1
    17     8    20    1
    18    20    21    1
    19    21    22   ar
    20    22    23   ar
    21    23    24   ar
    22    24    25   ar
    23    25    26   ar
    24    26    27    1
    25    20    28    1
    26    28    29   ar
    27    29    30   ar
    28    30    31   ar
    29    31    32   ar
    30    32    33   ar
    31    33    34    1
    32     7     1    1
    33    26    21   ar
    34    33    28   ar
    35    14     9   ar
    36     8     3    1
    37    15    18    1
    38    15    19    1
@<TRIPOS>MOLECULE
*****
 34 38 0 0 0
SMALL
GASTEIGER

@<TRIPOS>ATOM
      1 C         -10.0930  -17.6209   22.6187 C.3     1  UNL1        0.0899
      2 C         -10.3869  -18.7423   23.5706 C.3     1  UNL1        0.0287
      3 C         -11.7597  -18.8875   24.1575 C.3     1  UNL1        0.0588
      4 C         -13.2052  -18.6514   24.4808 C.3     1  UNL1        0.0174
      5 C         -13.6584  -17.4403   23.7206 C.3     1  UNL1        0.0174
      6 C         -12.4929  -16.9279   22.9274 C.3     1  UNL1        0.0588
      7 C         -11.1719  -16.6447   22.2538 C.3     1  UNL1        0.0287
      8 N         -11.3194  -17.8223   23.1975 N.3     1  UNL1       -0.2694
      9 C          -8.7502  -18.2880   22.6578 C.ar    1  UNL1       -0.0145
     10 C          -7.5000  -17.4604   22.6128 C.ar    1  UNL1       -0.0038
     11 C          -6.1570  -18.1276   22.6518 C.ar    1  UNL1       -0.0003
     12 C          -6.0644  -19.6224   22.7358 C.ar    1  UNL1       -0.0000
     13 C          -7.3146  -20.4500   22.7808 C.ar    1  UNL1       -0.0003
     14 C          -8.6575  -19.7828   22.7418 C.ar    1  UNL1       -0.0038
     15 N          -7.9065  -16.6805   21.2183 N.am    1  UNL1       -0.3286
     16 C          -9.3327  -16.7312   21.6804 C.2     1  UNL1        0.2223
     17 O         -10.0995  -15.7650   21.1320 O.2     1  UNL1       -0.2750
     18 H          -7.6205  -15.9887   20.5789 H       1  UNL1        0.1450
     19 H          -7.2565  -17.3391   21.5544 H       1  UNL1        0.1450
     20 C          -9.9467  -17.6771   22.6105 C.3     1  UNL1        0.1045
     21 C          -9.5837  -18.4200   21.3590 C.ar    1  UNL1        0.0070
     22 C          -8.1723  -18.3906   20.8519 C.ar    1  UNL1       -0.0018
     23 C          -7.8094  -19.1335   19.6003 C.ar    1  UNL1       -0.0002
     24 C          -8.8578  -19.9058   18.8558 C.ar    1  UNL1        0.0008
     25 C         -10.2692  -19.9352   19.3629 C.ar    1  UNL1        0.0111
     26 C         -10.6322  -19.1924   20.6145 C.ar    1  UNL1        0.0553
     27 CL        -12.0436  -19.2218   21.1215 Cl      1  UNL1       -0.0825
     28 C          -8.9369  -16.7891   23.2751 C.ar    1  UNL1        0.0070
     29 C          -8.2419  -15.7207   22.4843 C.ar    1  UNL1       -0.0018
     30 C          -7.2322  -14.8326   23.1488 C.ar    1  UNL1       -0.0002
     31 C          -6.9173  -15.0130   24.6043 C.ar    1  UNL1        0.0008
     32 C          -7.6123  -16.0815   25.3952 C.ar    1  UNL1        0.0111
     33 C          -8.6221  -16.9695   24.7305 C.ar    1  UNL1        0.0553
     34 CL         -8.9967  -17.8205   25.9077 Cl      1  UNL1       -0.0825
@<TRIPOS>BOND
     1    15    16   am
     2    16    17    2
     3    16     1    1
     4     1     9    1
     5     9    10   ar
     6    10    11   ar
     7    11    12   ar
     8    12    13   ar
     9    13    14   ar
    10     1     2    1
    11     2     3    1
    12     3     4    1
    13     4     5    1
    14     5     6    1
    15     6     7    1
    16     6     8    1
    17     8    20    1
    18    20    21    1
    19    21    22   ar
    20    22    23   ar
    21    23    24   ar
    22    24    25   ar
    23    25    26   ar
    24    26    27    1
    25    20    28    1
    26    28    29   ar
    27    29    30   ar
    28    30    31   ar
    29    31    32   ar
    30    32    33   ar
    31    33    34    1
    32     7     1    1
    33    26    21   ar
    34    33    28   ar
    35    14     9   ar
    36     8     3    1
    37    15    18    1
    38    15    19    1
@<TRIPOS>MOLECULE
*****
 34 38 0 0 0
SMALL
GASTEIGER

@<TRIPOS>ATOM
      1 C         -10.0031  -17.6275   22.6492 C.3     1  UNL1        0.0899
      2 C         -10.2945  -18.7690   23.5778 C.3     1  UNL1        0.0287
      3 C         -11.6663  -18.9280   24.1633 C.3     1  UNL1        0.0588
      4 C         -13.1117  -18.7003   24.4934 C.3     1  UNL1        0.0174
      5 C         -13.5671  -17.4741   23.7593 C.3     1  UNL1        0.0174
      6 C         -12.4033  -16.9439   22.9755 C.3     1  UNL1        0.0588
      7 C         -11.0835  -16.6451   22.3063 C.3     1  UNL1        0.0287
      8 N         -11.2284  -17.8425   23.2252 N.3     1  UNL1       -0.2694
      9 C          -8.6594  -18.2939   22.6725 C.ar    1  UNL1       -0.0145
     10 C          -7.4103  -17.4635   22.6678 C.ar    1  UNL1       -0.0038
     11 C          -6.0666  -18.1298   22.6910 C.ar    1  UNL1       -0.0003
     12 C          -5.9721  -19.6266   22.7190 C.ar    1  UNL1       -0.0000
     13 C          -7.2212  -20.4570   22.7238 C.ar    1  UNL1       -0.0003
     14 C          -8.5649  -19.7906   22.7005 C.ar    1  UNL1       -0.0038
     15 N          -7.8151  -16.6436   21.2815 N.am    1  UNL1       -0.3286
     16 C          -9.2450  -16.7175   21.7288 C.2     1  UNL1        0.2223
     17 O         -10.0186  -15.7547   21.1839 O.2     1  UNL1       -0.2750
     18 H          -7.5317  -15.9408   20.6529 H       1  UNL1        0.1450
     19 H          -7.1601  -17.2977   21.6165 H       1  UNL1        0.1450
     20 C          -9.8566  -17.6835   22.6397 C.3     1  UNL1        0.1045
     21 C          -8.8562  -16.7862   23.3060 C.ar    1  UNL1        0.0070
     22 C          -8.1744  -15.7072   22.5178 C.ar    1  UNL1       -0.0018
     23 C          -7.1739  -14.8100   23.1842 C.ar    1  UNL1       -0.0002
     24 C          -6.8552  -14.9916   24.6386 C.ar    1  UNL1        0.0008
     25 C          -7.5369  -16.0706   25.4267 C.ar    1  UNL1        0.0111
     26 C          -8.5374  -16.9679   24.7604 C.ar    1  UNL1        0.0553
     27 CL         -9.2191  -18.0468   25.5486 Cl      1  UNL1       -0.0825
     28 C          -9.4853  -18.4217   21.3878 C.ar    1  UNL1        0.0070
     29 C          -8.0929  -18.3164   20.8401 C.ar    1  UNL1       -0.0018
     30 C          -7.7216  -19.0546   19.5883 C.ar    1  UNL1       -0.0002
     31 C          -8.7427  -19.8982   18.8842 C.ar    1  UNL1        0.0008
     32 C         -10.1352  -20.0035   19.4319 C.ar    1  UNL1        0.0111
     33 C         -10.5064  -19.2652   20.6838 C.ar    1  UNL1        0.0553
     34 CL        -11.9409  -19.6909   20.7903 Cl      1  UNL1       -0.0825
@<TRIPOS>BOND
     1    15    16   am
     2    16    17    2
     3    16     1    1
     4     1     9    1
     5     9    10   ar
     6    10    11   ar
     7    11    12   ar
     8    12    13   ar
     9    13    14   ar
    10     1     2    1
    11     2     3    1
    12     3     4    1
    13     4     5    1
    14     5     6    1
    15     6     7    1
    16     6     8    1
    17     8    20    1
    18    20    21    1
    19    21    22   ar
    20    22    23   ar
    21    23    24   ar
    22    24    25   ar
    23    25    26   ar
    24    26    27    1
    25    20    28    1
    26    28    29   ar
    27    29    30   ar
    28    30    31   ar
    29    31    32   ar
    30    32    33   ar
    31    33    34    1
    32     7     1    1
    33    26    21   ar
    34    33    28   ar
    35    14     9   ar
    36     8     3    1
    37    15    18    1
    38    15    19    1
@<TRIPOS>MOLECULE
*****
 34 38 0 0 0
SMALL
GASTEIGER

@<TRIPOS>ATOM
      1 C          -9.5671  -17.5417   23.9367 C.3     1  UNL1        0.0899
      2 C          -9.3111  -16.0643   23.8947 C.3     1  UNL1        0.0287
      3 C          -8.6785  -15.3790   25.0695 C.3     1  UNL1        0.0588
      4 C          -8.0553  -15.1322   26.4114 C.3     1  UNL1        0.0174
      5 C          -7.9857  -16.4425   27.1381 C.3     1  UNL1        0.0174
      6 C          -8.5658  -17.4992   26.2454 C.3     1  UNL1        0.0588
      7 C          -9.1905  -18.3338   25.1535 C.3     1  UNL1        0.0287
      8 N          -8.9940  -16.8419   24.9669 N.3     1  UNL1       -0.2694
      9 C         -10.0965  -17.2244   22.5696 C.ar    1  UNL1       -0.0145
     10 C         -10.9133  -18.2402   21.8272 C.ar    1  UNL1       -0.0038
     11 C         -11.4427  -17.9229   20.4601 C.ar    1  UNL1       -0.0003
     12 C         -11.1553  -16.5899   19.8353 C.ar    1  UNL1       -0.0000
     13 C         -10.3386  -15.5741   20.5776 C.ar    1  UNL1       -0.0003
     14 C          -9.8092  -15.8914   21.9447 C.ar    1  UNL1       -0.0038
     15 N         -11.2371  -19.4438   22.8324 N.am    1  UNL1       -0.3286
     16 C         -10.0070  -18.9089   23.5038 C.2     1  UNL1        0.2223
     17 O          -9.0970  -19.8673   23.7786 O.2     1  UNL1       -0.2750
     18 H         -11.3132  -20.4060   22.6386 H       1  UNL1        0.1450
     19 H         -11.9684  -18.8326   22.5855 H       1  UNL1        0.1450
     20 C          -9.6266  -17.5271   23.7921 C.3     1  UNL1        0.1045
     21 C         -11.1204  -17.6231   23.6949 C.ar    1  UNL1        0.0070
     22 C         -11.8730  -16.7040   22.7788 C.ar    1  UNL1       -0.0018
     23 C         -13.3668  -16.8000   22.6816 C.ar    1  UNL1       -0.0002
     24 C         -14.1080  -17.8149   23.5004 C.ar    1  UNL1        0.0008
     25 C         -13.3554  -18.7339   24.4165 C.ar    1  UNL1        0.0111
     26 C         -11.8617  -18.6380   24.5137 C.ar    1  UNL1        0.0553
     27 CL        -11.1092  -19.5570   25.4298 Cl      1  UNL1       -0.0825
     28 C          -8.7655  -18.1165   22.7145 C.ar    1  UNL1        0.0070
     29 C          -9.3494  -19.0949   21.7390 C.ar    1  UNL1       -0.0018
     30 C          -8.4884  -19.6842   20.6614 C.ar    1  UNL1       -0.0002
     31 C          -7.0433  -19.2951   20.5594 C.ar    1  UNL1        0.0008
     32 C          -6.4594  -18.3166   21.5349 C.ar    1  UNL1        0.0111
     33 C          -7.3206  -17.7273   22.6125 C.ar    1  UNL1        0.0553
     34 CL         -6.2981  -16.8553   23.2790 Cl      1  UNL1       -0.0825
@<TRIPOS>BOND
     1    15    16   am
     2    16    17    2
     3    16     1    1
     4     1     9    1
     5     9    10   ar
     6    10    11   ar
     7    11    12   ar
     8    12    13   ar
     9    13    14   ar
    10     1     2    1
    11     2     3    1
    12     3     4    1
    13     4     5    1
    14     5     6    1
    15     6     7    1
    16     6     8    1
    17     8    20    1
    18    20    21    1
    19    21    22   ar
    20    22    23   ar
    21    23    24   ar
    22    24    25   ar
    23    25    26   ar
    24    26    27    1
    25    20    28    1
    26    28    29   ar
    27    29    30   ar
    28    30    31   ar
    29    31    32   ar
    30    32    33   ar
    31    33    34    1
    32     7     1    1
    33    26    21   ar
    34    33    28   ar
    35    14     9   ar
    36     8     3    1
    37    15    18    1
    38    15    19    1
@<TRIPOS>MOLECULE
*****
 34 38 0 0 0
SMALL
GASTEIGER

@<TRIPOS>ATOM
      1 C           5.2991    0.1865   18.2555 C.3     1  UNL1        0.0899
      2 C           6.0968    1.0547   19.1827 C.3     1  UNL1        0.0287
      3 C           7.2582    1.8450   18.6568 C.3     1  UNL1        0.0588
      4 C           8.2853    2.4278   17.7319 C.3     1  UNL1        0.0174
      5 C           8.0346    1.8816   16.3576 C.3     1  UNL1        0.0174
      6 C           6.8526    0.9612   16.4331 C.3     1  UNL1        0.0588
      7 C           5.6627    0.1086   16.8023 C.3     1  UNL1        0.0287
      8 N           6.3728    0.9385   17.8540 N.3     1  UNL1       -0.2694
      9 C           4.5705   -0.0678   19.5417 C.ar    1  UNL1       -0.0145
     10 C           4.5105    1.0000   20.5934 C.ar    1  UNL1       -0.0038
     11 C           3.7819    0.7457   21.8798 C.ar    1  UNL1       -0.0003
     12 C           3.1133   -0.5764   22.1143 C.ar    1  UNL1       -0.0000
     13 C           3.1733   -1.6442   21.0625 C.ar    1  UNL1       -0.0003
     14 C           3.9019   -1.3899   19.7763 C.ar    1  UNL1       -0.0038
     15 N           3.3299   -1.7389   18.4591 N.am    1  UNL1       -0.3286
     16 C           4.2482   -0.7700   17.7749 C.2     1  UNL1        0.2223
     17 O           4.0956   -0.7557   16.4338 O.2     1  UNL1       -0.2750
     18 H           2.7023   -2.2808   17.9284 H       1  UNL1        0.1450
     19 H           3.3548   -1.8328   19.4388 H       1  UNL1        0.1450
     20 C           5.2114    0.1483   18.3800 C.3     1  UNL1        0.1045
     21 C           3.8423    0.7601   18.4150 C.ar    1  UNL1        0.0070
     22 C           2.6361   -0.1110   18.6060 C.ar    1  UNL1       -0.0018
     23 C           1.2670    0.5009   18.6410 C.ar    1  UNL1       -0.0002
     24 C           1.1040    1.9837   18.4849 C.ar    1  UNL1        0.0008
     25 C           2.3102    2.8549   18.2939 C.ar    1  UNL1        0.0111
     26 C           3.6793    2.2430   18.2589 C.ar    1  UNL1        0.0553
     27 CL          4.8854    3.1142   18.0679 Cl      1  UNL1       -0.0825
     28 C           5.4191   -1.2538   18.8709 C.ar    1  UNL1        0.0070
     29 C           4.8279   -2.4079   18.1168 C.ar    1  UNL1       -0.0018
     30 C           5.0356   -3.8099   18.6077 C.ar    1  UNL1       -0.0002
     31 C           5.8344   -4.0579   19.8528 C.ar    1  UNL1        0.0008
     32 C           6.4256   -2.9039   20.6070 C.ar    1  UNL1        0.0111
     33 C           6.2179   -1.5018   20.1160 C.ar    1  UNL1        0.0553
     34 CL          6.9781   -0.7660   21.1794 Cl      1  UNL1       -0.0825
@<TRIPOS>BOND
     1    15    16   am
     2    16    17    2
     3    16     1    1
     4     1     9    1
     5     9    10   ar
     6    10    11   ar
     7    11    12   ar
     8    12    13   ar
     9    13    14   ar
    10     1     2    1
    11     2     3    1
    12     3     4    1
    13     4     5    1
    14     5     6    1
    15     6     7    1
    16     6     8    1
    17     8    20    1
    18    20    21    1
    19    21    22   ar
    20    22    23   ar
    21    23    24   ar
    22    24    25   ar
    23    25    26   ar
    24    26    27    1
    25    20    28    1
    26    28    29   ar
    27    29    30   ar
    28    30    31   ar
    29    31    32   ar
    30    32    33   ar
    31    33    34    1
    32     7     1    1
    33    26    21   ar
    34    33    28   ar
    35    14     9   ar
    36     8     3    1
    37    15    18    1
    38    15    19    1
