@<TRIPOS>MOLECULE
*****
 37 43 0 0 0
SMALL
GASTEIGER

@<TRIPOS>ATOM
      1 C           2.3101   -0.5133   19.6648 C.2     1  UNL1       -0.0378
      2 C           0.8986   -0.5364   20.1724 C.2     1  UNL1       -0.0080
      3 C           0.0478    0.6954   20.0790 C.2     1  UNL1        0.0022
      4 C           0.6084    1.9502   19.4781 C.2     1  UNL1        0.0350
      5 C           0.0128    3.3085   19.2537 C.2     1  UNL1        0.1040
      6 N           1.0561    4.1711   18.6074 N.2     1  UNL1       -0.1483
      7 N           2.2964    3.3459   18.4325 N.2     1  UNL1       -0.1520
      8 C           2.0197    1.9734   18.9705 C.2     1  UNL1        0.0860
      9 C           2.8705    0.7415   19.0639 C.3     1  UNL1        0.0697
     10 O           5.2862   -4.8953   19.7910 O.2     1  UNL1       -0.2744
     11 C           4.8610   -3.8889   20.8188 C.2     1  UNL1        0.2293
     12 N           5.2275   -3.9053   22.2732 N.am    1  UNL1       -0.2839
     13 C           4.5877   -2.7159   22.9259 C.ar    1  UNL1        0.0467
     14 C           4.6004   -2.2201   24.3415 C.ar    1  UNL1        0.0144
     15 C           3.8512   -0.9728   24.7061 C.ar    1  UNL1        0.0013
     16 C           3.0892   -0.2214   23.6550 C.ar    1  UNL1       -0.0002
     17 C           3.0764   -0.7172   22.2395 C.ar    1  UNL1       -0.0026
     18 C           3.8257   -1.9645   21.8749 C.ar    1  UNL1       -0.0008
     19 C           3.9946   -2.6894   20.5726 C.3     1  UNL1        0.0927
     20 C           3.8007   -2.9345   19.1055 C.3     1  UNL1        0.0179
     21 C           3.1609   -1.7452   19.7582 C.3     1  UNL1        0.0315
     22 H           5.7894   -4.5784   22.7208 H       1  UNL1        0.1549
     23 C          -1.3813    3.7302   19.6125 C.2     1  UNL1        0.0209
     24 C          -1.8178    3.7340   21.0476 C.2     1  UNL1        0.0016
     25 C          -3.2119    4.1557   21.4064 C.ar    1  UNL1        0.0000
     26 C          -4.2157    3.1313   21.8456 C.ar    1  UNL1       -0.0003
     27 C          -5.6098    3.5530   22.2045 C.ar    1  UNL1       -0.0029
     28 C          -6.0000    4.9991   22.1240 C.ar    1  UNL1       -0.0061
     29 C          -4.9962    6.0236   21.6847 C.ar    1  UNL1       -0.0029
     30 C          -3.6021    5.6019   21.3259 C.ar    1  UNL1       -0.0003
     31 C          -7.3941    5.4208   22.4828 C.3     1  UNL1        0.0993
     32 N          -7.6809    5.9822   23.8439 N.3     1  UNL1       -0.2646
     33 C          -6.8097    5.6110   25.0071 C.3     1  UNL1        0.1049
     34 C          -7.0965    6.1725   26.3683 C.3     1  UNL1        0.1595
     35 O          -8.2545    7.1052   26.5661 O.3     1  UNL1       -0.3508
     36 C          -9.1258    7.4763   25.4027 C.3     1  UNL1        0.1595
     37 C          -8.8389    6.9149   24.0417 C.3     1  UNL1        0.1049
@<TRIPOS>BOND
     1    10    11    2
     2    11    12   am
     3    12    13    1
     4    13    14   ar
     5    14    15   ar
     6    15    16   ar
     7    16    17   ar
     8    17    18   ar
     9    18    19    1
    10    19    20    1
    11    20    21    1
    12    21     1    1
    13     1     2    2
    14     2     3    1
    15     3     4    2
    16     4     5    1
    17     5    23    1
    18    23    24    2
    19    24    25    1
    20    25    26   ar
    21    26    27   ar
    22    27    28   ar
    23    28    31    1
    24    31    32    1
    25    32    33    1
    26    33    34    1
    27    34    35    1
    28    35    36    1
    29    36    37    1
    30    28    29   ar
    31    29    30   ar
    32     5     6    2
    33     6     7    1
    34     7     8    2
    35     8     9    1
    36    19    11    1
    37     9     1    1
    38    18    13   ar
    39    21    19    1
    40     8     4    1
    41    30    25   ar
    42    37    32    1
    43    12    22    1
@<TRIPOS>MOLECULE
*****
 37 43 0 0 0
SMALL
GASTEIGER

@<TRIPOS>ATOM
      1 C           4.9758    0.6594   36.0985 C.2     1  UNL1       -0.0378
      2 C           4.6091   -0.4677   35.1790 C.2     1  UNL1       -0.0080
      3 C           5.5808   -0.9292   34.1337 C.2     1  UNL1        0.0022
      4 C           6.9192   -0.2636   34.0078 C.2     1  UNL1        0.0350
      5 C           8.0743   -0.4999   33.0806 C.2     1  UNL1        0.1040
      6 N           9.1550    0.4812   33.4269 N.2     1  UNL1       -0.1483
      7 N           8.6676    1.3237   34.5683 N.2     1  UNL1       -0.1520
      8 C           7.2859    0.8634   34.9272 C.2     1  UNL1        0.0860
      9 C           6.3141    1.3249   35.9726 C.3     1  UNL1        0.0697
     10 O           1.6192    2.1447   39.9198 O.2     1  UNL1       -0.2744
     11 C           1.8768    2.6053   38.5157 C.2     1  UNL1        0.2293
     12 N           1.1579    3.7140   37.8056 N.am    1  UNL1       -0.2839
     13 C           1.7353    3.8320   36.4262 C.ar    1  UNL1        0.0467
     14 C           1.4205    4.7488   35.2815 C.ar    1  UNL1        0.0144
     15 C           2.1814    4.6298   33.9943 C.ar    1  UNL1        0.0013
     16 C           3.2571    3.5942   33.8519 C.ar    1  UNL1       -0.0002
     17 C           3.5718    2.6774   34.9966 C.ar    1  UNL1       -0.0026
     18 C           2.8110    2.7963   36.2837 C.ar    1  UNL1       -0.0008
     19 C           2.8984    2.0382   37.5751 C.3     1  UNL1        0.0927
     20 C           3.4267    1.0029   38.5232 C.3     1  UNL1        0.0179
     21 C           4.0041    1.1209   37.1439 C.3     1  UNL1        0.0315
     22 H           0.4343    4.2670   38.1793 H       1  UNL1        0.1549
     23 C           8.1378   -1.5353   31.9971 C.2     1  UNL1        0.0209
     24 C           8.0706   -2.9923   32.3473 C.2     1  UNL1        0.0016
     25 C           8.1341   -4.0278   31.2639 C.ar    1  UNL1        0.0000
     26 C           9.4048   -4.2298   30.4929 C.ar    1  UNL1       -0.0003
     27 C           9.4682   -5.2653   29.4095 C.ar    1  UNL1       -0.0029
     28 C           8.2609   -6.0988   29.0970 C.ar    1  UNL1       -0.0061
     29 C           6.9901   -5.8968   29.8680 C.ar    1  UNL1       -0.0029
     30 C           6.9267   -4.8613   30.9514 C.ar    1  UNL1       -0.0003
     31 C           8.3244   -7.1342   28.0136 C.3     1  UNL1        0.0993
     32 N           8.1118   -6.7367   26.5830 N.3     1  UNL1       -0.2646
     33 C           7.3684   -5.4752   26.2575 C.3     1  UNL1        0.1049
     34 C           7.1559   -5.0777   24.8268 C.3     1  UNL1        0.1595
     35 O           7.6868   -5.9418   23.7215 O.3     1  UNL1       -0.3508
     36 C           8.4303   -7.2034   24.0470 C.3     1  UNL1        0.1595
     37 C           8.6428   -7.6008   25.4777 C.3     1  UNL1        0.1049
@<TRIPOS>BOND
     1    10    11    2
     2    11    12   am
     3    12    13    1
     4    13    14   ar
     5    14    15   ar
     6    15    16   ar
     7    16    17   ar
     8    17    18   ar
     9    18    19    1
    10    19    20    1
    11    20    21    1
    12    21     1    1
    13     1     2    2
    14     2     3    1
    15     3     4    2
    16     4     5    1
    17     5    23    1
    18    23    24    2
    19    24    25    1
    20    25    26   ar
    21    26    27   ar
    22    27    28   ar
    23    28    31    1
    24    31    32    1
    25    32    33    1
    26    33    34    1
    27    34    35    1
    28    35    36    1
    29    36    37    1
    30    28    29   ar
    31    29    30   ar
    32     5     6    2
    33     6     7    1
    34     7     8    2
    35     8     9    1
    36    19    11    1
    37     9     1    1
    38    18    13   ar
    39    21    19    1
    40     8     4    1
    41    30    25   ar
    42    37    32    1
    43    12    22    1
@<TRIPOS>MOLECULE
*****
 37 43 0 0 0
SMALL
GASTEIGER

@<TRIPOS>ATOM
      1 C           7.5979   -2.3139   20.6460 C.2     1  UNL1       -0.0378
      2 C           7.4521   -1.7474   22.0273 C.2     1  UNL1       -0.0080
      3 C           7.5993   -2.6404   23.2235 C.2     1  UNL1        0.0022
      4 C           7.8924   -4.0998   23.0384 C.2     1  UNL1        0.0350
      5 C           8.0891   -5.2164   24.0204 C.2     1  UNL1        0.1040
      6 N           8.3565   -6.4731   23.2461 N.2     1  UNL1       -0.1483
      7 N           8.3250   -6.1329   21.7855 N.2     1  UNL1       -0.1520
      8 C           8.0382   -4.6663   21.6572 C.2     1  UNL1        0.0860
      9 C           7.8910   -3.7732   20.4609 C.3     1  UNL1        0.0697
     10 O           7.2846    0.8366   16.3973 O.2     1  UNL1       -0.2744
     11 C           6.2775    0.2473   17.3399 C.2     1  UNL1        0.2293
     12 N           4.7917    0.4439   17.2785 N.am    1  UNL1       -0.2839
     13 C           4.1753   -0.3239   18.4101 C.ar    1  UNL1        0.0467
     14 C           2.7507   -0.4987   18.8459 C.ar    1  UNL1        0.0144
     15 C           2.4310   -1.3445   20.0427 C.ar    1  UNL1        0.0013
     16 C           3.5358   -2.0156   20.8036 C.ar    1  UNL1       -0.0002
     17 C           4.9604   -1.8409   20.3677 C.ar    1  UNL1       -0.0026
     18 C           5.2801   -0.9950   19.1710 C.ar    1  UNL1       -0.0008
     19 C           6.5793   -0.6420   18.5096 C.3     1  UNL1        0.0927
     20 C           8.0670   -0.6531   18.3182 C.3     1  UNL1        0.0179
     21 C           7.4507   -1.4209   19.4497 C.3     1  UNL1        0.0315
     22 H           4.3063    0.9823   16.6123 H       1  UNL1        0.1549
     23 C           8.0289   -5.0974   25.5145 C.2     1  UNL1        0.0209
     24 C           6.8402   -4.4579   26.1687 C.2     1  UNL1        0.0016
     25 C           6.7801   -4.3389   27.6628 C.ar    1  UNL1        0.0000
     26 C           6.5212   -3.0055   28.2992 C.ar    1  UNL1       -0.0003
     27 C           6.4611   -2.8865   29.7932 C.ar    1  UNL1       -0.0029
     28 C           6.6598   -4.1009   30.6509 C.ar    1  UNL1       -0.0061
     29 C           6.9186   -5.4344   30.0146 C.ar    1  UNL1       -0.0029
     30 C           6.9788   -5.5534   28.5205 C.ar    1  UNL1       -0.0003
     31 C           6.5996   -3.9819   32.1450 C.3     1  UNL1        0.0993
     32 N           6.1389   -2.7022   32.7774 N.3     1  UNL1       -0.2646
     33 C           7.1060   -1.5728   32.9754 C.3     1  UNL1        0.1049
     34 C           6.6452   -0.2930   33.6079 C.3     1  UNL1        0.1595
     35 O           5.2174   -0.1427   34.0424 O.3     1  UNL1       -0.3508
     36 C           4.2503   -1.2722   33.8444 C.3     1  UNL1        0.1595
     37 C           4.7111   -2.5519   33.2119 C.3     1  UNL1        0.1049
@<TRIPOS>BOND
     1    10    11    2
     2    11    12   am
     3    12    13    1
     4    13    14   ar
     5    14    15   ar
     6    15    16   ar
     7    16    17   ar
     8    17    18   ar
     9    18    19    1
    10    19    20    1
    11    20    21    1
    12    21     1    1
    13     1     2    2
    14     2     3    1
    15     3     4    2
    16     4     5    1
    17     5    23    1
    18    23    24    2
    19    24    25    1
    20    25    26   ar
    21    26    27   ar
    22    27    28   ar
    23    28    31    1
    24    31    32    1
    25    32    33    1
    26    33    34    1
    27    34    35    1
    28    35    36    1
    29    36    37    1
    30    28    29   ar
    31    29    30   ar
    32     5     6    2
    33     6     7    1
    34     7     8    2
    35     8     9    1
    36    19    11    1
    37     9     1    1
    38    18    13   ar
    39    21    19    1
    40     8     4    1
    41    30    25   ar
    42    37    32    1
    43    12    22    1
@<TRIPOS>MOLECULE
*****
 37 43 0 0 0
SMALL
GASTEIGER

@<TRIPOS>ATOM
      1 C           2.1153   -0.7215   19.8322 C.2     1  UNL1       -0.0378
      2 C           1.3349   -0.5392   21.1003 C.2     1  UNL1       -0.0080
      3 C           0.3574    0.5918   21.2233 C.2     1  UNL1        0.0022
      4 C           0.1602    1.5406   20.0783 C.2     1  UNL1        0.0350
      5 C          -0.7259    2.7389   19.9090 C.2     1  UNL1        0.1040
      6 N          -0.4933    3.2973   18.5363 N.2     1  UNL1       -0.1483
      7 N           0.5367    2.4439   17.8574 N.2     1  UNL1       -0.1520
      8 C           0.9406    1.3583   18.8103 C.2     1  UNL1        0.0860
      9 C           1.9181    0.2272   18.6873 C.3     1  UNL1        0.0697
     10 O           5.4108   -4.8417   19.3434 O.2     1  UNL1       -0.2744
     11 C           5.5860   -3.4002   19.7194 C.2     1  UNL1        0.2293
     12 N           6.8806   -2.7342   20.0804 N.am    1  UNL1       -0.2839
     13 C           6.5920   -1.2940   20.3845 C.ar    1  UNL1        0.0467
     14 C           7.4802   -0.1577   20.7966 C.ar    1  UNL1        0.0144
     15 C           6.8954    1.2027   21.0357 C.ar    1  UNL1        0.0013
     16 C           5.4224    1.4269   20.8627 C.ar    1  UNL1       -0.0002
     17 C           4.5342    0.2906   20.4505 C.ar    1  UNL1       -0.0026
     18 C           5.1190   -1.0698   20.2114 C.ar    1  UNL1       -0.0008
     19 C           4.4972   -2.3715   19.8004 C.3     1  UNL1        0.0927
     20 C           3.3814   -3.2928   19.4051 C.3     1  UNL1        0.0179
     21 C           3.0928   -1.8527   19.7093 C.3     1  UNL1        0.0315
     22 H           7.7646   -3.1664   20.1121 H       1  UNL1        0.1549
     23 C          -1.6776    3.2834   20.9326 C.2     1  UNL1        0.0209
     24 C          -3.1438    3.3627   20.6262 C.2     1  UNL1        0.0016
     25 C          -4.0956    3.9072   21.6498 C.ar    1  UNL1        0.0000
     26 C          -4.5492    3.0414   22.7876 C.ar    1  UNL1       -0.0003
     27 C          -5.5010    3.5859   23.8113 C.ar    1  UNL1       -0.0029
     28 C          -5.9991    4.9961   23.6971 C.ar    1  UNL1       -0.0061
     29 C          -5.5455    5.8620   22.5592 C.ar    1  UNL1       -0.0029
     30 C          -4.5937    5.3175   21.5356 C.ar    1  UNL1       -0.0003
     31 C          -6.9508    5.5406   24.7207 C.3     1  UNL1        0.0993
     32 N          -6.4352    6.0141   26.0472 N.3     1  UNL1       -0.2646
     33 C          -4.9591    6.1637   26.2681 C.3     1  UNL1        0.1049
     34 C          -4.4434    6.6373   27.5947 C.3     1  UNL1        0.1595
     35 O          -5.4039    6.9613   28.7004 O.3     1  UNL1       -0.3508
     36 C          -6.8800    6.8117   28.4795 C.3     1  UNL1        0.1595
     37 C          -7.3956    6.3382   27.1529 C.3     1  UNL1        0.1049
@<TRIPOS>BOND
     1    10    11    2
     2    11    12   am
     3    12    13    1
     4    13    14   ar
     5    14    15   ar
     6    15    16   ar
     7    16    17   ar
     8    17    18   ar
     9    18    19    1
    10    19    20    1
    11    20    21    1
    12    21     1    1
    13     1     2    2
    14     2     3    1
    15     3     4    2
    16     4     5    1
    17     5    23    1
    18    23    24    2
    19    24    25    1
    20    25    26   ar
    21    26    27   ar
    22    27    28   ar
    23    28    31    1
    24    31    32    1
    25    32    33    1
    26    33    34    1
    27    34    35    1
    28    35    36    1
    29    36    37    1
    30    28    29   ar
    31    29    30   ar
    32     5     6    2
    33     6     7    1
    34     7     8    2
    35     8     9    1
    36    19    11    1
    37     9     1    1
    38    18    13   ar
    39    21    19    1
    40     8     4    1
    41    30    25   ar
    42    37    32    1
    43    12    22    1
@<TRIPOS>MOLECULE
*****
 37 43 0 0 0
SMALL
GASTEIGER

@<TRIPOS>ATOM
      1 C           2.7132   -1.0707   21.2896 C.2     1  UNL1       -0.0378
      2 C           3.1144   -0.9726   22.7318 C.2     1  UNL1       -0.0080
      3 C           2.4411    0.0208   23.6316 C.2     1  UNL1        0.0022
      4 C           1.3666    0.9161   23.0894 C.2     1  UNL1        0.0350
      5 C           0.5310    1.9836   23.7314 C.2     1  UNL1        0.1040
      6 N          -0.3867    2.5452   22.6861 N.2     1  UNL1       -0.1483
      7 N          -0.1180    1.8248   21.3981 N.2     1  UNL1       -0.1520
      8 C           0.9655    0.8181   21.6473 C.2     1  UNL1        0.0860
      9 C           1.6389   -0.1754   20.7475 C.3     1  UNL1        0.0697
     10 O           4.9496   -4.7212   18.1676 O.2     1  UNL1       -0.2744
     11 C           5.2504   -3.2854   18.4805 C.2     1  UNL1        0.2293
     12 N           6.3793   -2.4771   17.9129 N.am    1  UNL1       -0.2839
     13 C           6.3018   -1.0979   18.4976 C.ar    1  UNL1        0.0467
     14 C           7.1507    0.1235   18.3041 C.ar    1  UNL1        0.0144
     15 C           6.8228    1.3889   19.0397 C.ar    1  UNL1        0.0013
     16 C           5.6459    1.4330   19.9687 C.ar    1  UNL1       -0.0002
     17 C           4.7970    0.2116   20.1622 C.ar    1  UNL1       -0.0026
     18 C           5.1249   -1.0539   19.4266 C.ar    1  UNL1       -0.0008
     19 C           4.4752   -2.4058   19.4160 C.3     1  UNL1        0.0927
     20 C           3.4641   -3.4433   19.8051 C.3     1  UNL1        0.0179
     21 C           3.3866   -2.0642   20.3898 C.3     1  UNL1        0.0315
     22 H           7.0529   -2.7958   17.2695 H       1  UNL1        0.1549
     23 C           0.6006    2.4138   25.1666 C.2     1  UNL1        0.0209
     24 C           0.4845    1.3951   26.2615 C.2     1  UNL1        0.0016
     25 C           0.5542    1.8254   27.6968 C.ar    1  UNL1        0.0000
     26 C           1.2814    3.0837   28.0681 C.ar    1  UNL1       -0.0003
     27 C           1.3510    3.5140   29.5034 C.ar    1  UNL1       -0.0029
     28 C           0.6935    2.6860   30.5674 C.ar    1  UNL1       -0.0061
     29 C          -0.0337    1.4276   30.1961 C.ar    1  UNL1       -0.0029
     30 C          -0.1034    0.9973   28.7608 C.ar    1  UNL1       -0.0003
     31 C           0.7632    3.1163   32.0027 C.3     1  UNL1        0.0993
     32 N           1.7603    2.4838   32.9276 N.3     1  UNL1       -0.2646
     33 C           2.5315    1.2753   32.4862 C.3     1  UNL1        0.1049
     34 C           3.5287    0.6428   33.4112 C.3     1  UNL1        0.1595
     35 O           3.7548    1.2189   34.7777 O.3     1  UNL1       -0.3508
     36 C           2.9835    2.4275   35.2190 C.3     1  UNL1        0.1595
     37 C           1.9864    3.0599   34.2940 C.3     1  UNL1        0.1049
@<TRIPOS>BOND
     1    10    11    2
     2    11    12   am
     3    12    13    1
     4    13    14   ar
     5    14    15   ar
     6    15    16   ar
     7    16    17   ar
     8    17    18   ar
     9    18    19    1
    10    19    20    1
    11    20    21    1
    12    21     1    1
    13     1     2    2
    14     2     3    1
    15     3     4    2
    16     4     5    1
    17     5    23    1
    18    23    24    2
    19    24    25    1
    20    25    26   ar
    21    26    27   ar
    22    27    28   ar
    23    28    31    1
    24    31    32    1
    25    32    33    1
    26    33    34    1
    27    34    35    1
    28    35    36    1
    29    36    37    1
    30    28    29   ar
    31    29    30   ar
    32     5     6    2
    33     6     7    1
    34     7     8    2
    35     8     9    1
    36    19    11    1
    37     9     1    1
    38    18    13   ar
    39    21    19    1
    40     8     4    1
    41    30    25   ar
    42    37    32    1
    43    12    22    1
@<TRIPOS>MOLECULE
*****
 37 43 0 0 0
SMALL
GASTEIGER

@<TRIPOS>ATOM
      1 C           3.4075   -1.2523   22.3564 C.2     1  UNL1       -0.0378
      2 C           2.1322   -0.5347   22.0264 C.2     1  UNL1       -0.0080
      3 C           1.6330    0.5587   22.9239 C.2     1  UNL1        0.0022
      4 C           2.4092    0.9344   24.1513 C.2     1  UNL1        0.0350
      5 C           2.1672    1.9628   25.2160 C.2     1  UNL1        0.1040
      6 N           3.2929    1.8809   26.2041 N.2     1  UNL1       -0.1483
      7 N           4.2305    0.8018   25.7498 N.2     1  UNL1       -0.1520
      8 C           3.6844    0.2169   24.4812 C.2     1  UNL1        0.0860
      9 C           4.1836   -0.8765   23.5837 C.3     1  UNL1        0.0697
     10 O           5.1258   -5.2520   19.3356 O.2     1  UNL1       -0.2744
     11 C           5.0244   -3.7672   19.1479 C.2     1  UNL1        0.2293
     12 N           5.4343   -3.0032   17.9239 N.am    1  UNL1       -0.2839
     13 C           5.1586   -1.5496   18.1708 C.ar    1  UNL1        0.0467
     14 C           5.3609   -0.3310   17.3199 C.ar    1  UNL1        0.0144
     15 C           4.9829    1.0220   17.8457 C.ar    1  UNL1        0.0013
     16 C           4.4026    1.1564   19.2223 C.ar    1  UNL1       -0.0002
     17 C           4.2003   -0.0622   20.0732 C.ar    1  UNL1       -0.0026
     18 C           4.5782   -1.4152   19.5474 C.ar    1  UNL1       -0.0008
     19 C           4.4954   -2.7857   20.1513 C.3     1  UNL1        0.0927
     20 C           4.1824   -3.7992   21.2120 C.3     1  UNL1        0.0179
     21 C           3.9067   -2.3456   21.4589 C.3     1  UNL1        0.0315
     22 H           5.8171   -3.3882   17.1026 H       1  UNL1        0.1549
     23 C           1.0037    2.9074   25.2814 C.2     1  UNL1        0.0209
     24 C          -0.3913    2.3713   25.4098 C.2     1  UNL1        0.0016
     25 C          -1.5547    3.3158   25.4751 C.ar    1  UNL1        0.0000
     26 C          -1.7440    4.3480   24.4032 C.ar    1  UNL1       -0.0003
     27 C          -2.9074    5.2925   24.4686 C.ar    1  UNL1       -0.0029
     28 C          -3.8816    5.2049   25.6058 C.ar    1  UNL1       -0.0061
     29 C          -3.6924    4.1728   26.6777 C.ar    1  UNL1       -0.0029
     30 C          -2.5290    3.2282   26.6124 C.ar    1  UNL1       -0.0003
     31 C          -5.0451    6.1495   25.6711 C.3     1  UNL1        0.0993
     32 N          -6.3686    5.7504   25.0892 N.3     1  UNL1       -0.2646
     33 C          -6.4351    4.6777   24.0428 C.3     1  UNL1        0.1049
     34 C          -7.7588    4.2785   23.4608 C.3     1  UNL1        0.1595
     35 O          -9.0160    4.9522   23.9253 O.3     1  UNL1       -0.3508
     36 C          -8.9495    6.0249   24.9717 C.3     1  UNL1        0.1595
     37 C          -7.6258    6.4240   25.5536 C.3     1  UNL1        0.1049
@<TRIPOS>BOND
     1    10    11    2
     2    11    12   am
     3    12    13    1
     4    13    14   ar
     5    14    15   ar
     6    15    16   ar
     7    16    17   ar
     8    17    18   ar
     9    18    19    1
    10    19    20    1
    11    20    21    1
    12    21     1    1
    13     1     2    2
    14     2     3    1
    15     3     4    2
    16     4     5    1
    17     5    23    1
    18    23    24    2
    19    24    25    1
    20    25    26   ar
    21    26    27   ar
    22    27    28   ar
    23    28    31    1
    24    31    32    1
    25    32    33    1
    26    33    34    1
    27    34    35    1
    28    35    36    1
    29    36    37    1
    30    28    29   ar
    31    29    30   ar
    32     5     6    2
    33     6     7    1
    34     7     8    2
    35     8     9    1
    36    19    11    1
    37     9     1    1
    38    18    13   ar
    39    21    19    1
    40     8     4    1
    41    30    25   ar
    42    37    32    1
    43    12    22    1
@<TRIPOS>MOLECULE
*****
 37 43 0 0 0
SMALL
GASTEIGER

@<TRIPOS>ATOM
      1 C           7.5388   -3.0697   24.3415 C.2     1  UNL1       -0.0378
      2 C           7.6075   -1.8371   25.1936 C.2     1  UNL1       -0.0080
      3 C           7.3068   -1.9217   26.6607 C.2     1  UNL1        0.0022
      4 C           6.9374   -3.2391   27.2757 C.2     1  UNL1        0.0350
      5 C           6.5907   -3.6280   28.6823 C.2     1  UNL1        0.1040
      6 N           6.3077   -5.1010   28.6996 N.2     1  UNL1       -0.1483
      7 N           6.4795   -5.6223   27.3036 N.2     1  UNL1       -0.1520
      8 C           6.8687   -4.4717   26.4237 C.2     1  UNL1        0.0860
      9 C           7.1694   -4.3869   24.9565 C.3     1  UNL1        0.0697
     10 O           8.7936   -2.8385   19.1988 O.2     1  UNL1       -0.2744
     11 C           7.5561   -2.5316   19.9891 C.2     1  UNL1        0.2293
     12 N           6.2547   -2.0355   19.4321 N.am    1  UNL1       -0.2839
     13 C           5.2970   -1.8642   20.5738 C.ar    1  UNL1        0.0467
     14 C           3.8706   -1.4034   20.6269 C.ar    1  UNL1        0.0144
     15 C           3.1537   -1.3328   21.9425 C.ar    1  UNL1        0.0013
     16 C           3.8632   -1.7231   23.2052 C.ar    1  UNL1       -0.0002
     17 C           5.2896   -2.1840   23.1521 C.ar    1  UNL1       -0.0026
     18 C           6.0065   -2.2546   21.8365 C.ar    1  UNL1       -0.0008
     19 C           7.4027   -2.6670   21.4751 C.3     1  UNL1        0.0927
     20 C           8.7971   -3.1562   21.7327 C.3     1  UNL1        0.0179
     21 C           7.8395   -2.9850   22.8743 C.3     1  UNL1        0.0315
     22 H           6.0628   -1.8541   18.4837 H       1  UNL1        0.1549
     23 C           6.5365   -2.7058   29.8641 C.2     1  UNL1        0.0209
     24 C           6.1204   -3.2305   31.2063 C.2     1  UNL1        0.0016
     25 C           6.0662   -2.3084   32.3882 C.ar    1  UNL1        0.0000
     26 C           7.2697   -1.4939   32.7599 C.ar    1  UNL1       -0.0003
     27 C           7.2155   -0.5718   33.9417 C.ar    1  UNL1       -0.0029
     28 C           5.9577   -0.4641   34.7519 C.ar    1  UNL1       -0.0061
     29 C           4.7541   -1.2785   34.3802 C.ar    1  UNL1       -0.0029
     30 C           4.8083   -2.2007   33.1984 C.ar    1  UNL1       -0.0003
     31 C           5.9035    0.4581   35.9337 C.3     1  UNL1        0.0993
     32 N           4.6102    1.1169   36.3121 N.3     1  UNL1       -0.2646
     33 C           3.9867    2.1272   35.3953 C.3     1  UNL1        0.1049
     34 C           2.6934    2.7861   35.7738 C.3     1  UNL1        0.1595
     35 O           2.0235    2.4346   37.0691 O.3     1  UNL1       -0.3508
     36 C           2.6471    1.4243   37.9860 C.3     1  UNL1        0.1595
     37 C           3.9404    0.7655   37.6075 C.3     1  UNL1        0.1049
@<TRIPOS>BOND
     1    10    11    2
     2    11    12   am
     3    12    13    1
     4    13    14   ar
     5    14    15   ar
     6    15    16   ar
     7    16    17   ar
     8    17    18   ar
     9    18    19    1
    10    19    20    1
    11    20    21    1
    12    21     1    1
    13     1     2    2
    14     2     3    1
    15     3     4    2
    16     4     5    1
    17     5    23    1
    18    23    24    2
    19    24    25    1
    20    25    26   ar
    21    26    27   ar
    22    27    28   ar
    23    28    31    1
    24    31    32    1
    25    32    33    1
    26    33    34    1
    27    34    35    1
    28    35    36    1
    29    36    37    1
    30    28    29   ar
    31    29    30   ar
    32     5     6    2
    33     6     7    1
    34     7     8    2
    35     8     9    1
    36    19    11    1
    37     9     1    1
    38    18    13   ar
    39    21    19    1
    40     8     4    1
    41    30    25   ar
    42    37    32    1
    43    12    22    1
@<TRIPOS>MOLECULE
*****
 37 43 0 0 0
SMALL
GASTEIGER

@<TRIPOS>ATOM
      1 C           2.3873   -0.7898   20.8728 C.2     1  UNL1       -0.0378
      2 C           2.8010   -0.0827   22.1295 C.2     1  UNL1       -0.0080
      3 C           1.9790    1.0570   22.6541 C.2     1  UNL1        0.0022
      4 C           0.7432    1.4897   21.9220 C.2     1  UNL1        0.0350
      5 C          -0.2588    2.5716   22.1965 C.2     1  UNL1        0.1040
      6 N          -1.2919    2.5332   21.1095 N.2     1  UNL1       -0.1483
      7 N          -0.9281    1.4275   20.1633 N.2     1  UNL1       -0.1520
      8 C           0.3295    0.7826   20.6655 C.2     1  UNL1        0.0860
      9 C           1.1516   -0.3572   20.1409 C.3     1  UNL1        0.0697
     10 O           5.1786   -4.9457   19.1373 O.2     1  UNL1       -0.2744
     11 C           5.2199   -3.4708   18.8673 C.2     1  UNL1        0.2293
     12 N           6.1692   -2.7703   17.9410 N.am    1  UNL1       -0.2839
     13 C           5.8552   -1.3039   17.9775 C.ar    1  UNL1        0.0467
     14 C           6.4627   -0.1295   17.2693 C.ar    1  UNL1        0.0144
     15 C           5.9268    1.2506   17.5100 C.ar    1  UNL1        0.0013
     16 C           4.7834    1.4563   18.4588 C.ar    1  UNL1       -0.0002
     17 C           4.1759    0.2819   19.1670 C.ar    1  UNL1       -0.0026
     18 C           4.7118   -1.0982   18.9264 C.ar    1  UNL1       -0.0008
     19 C           4.3192   -2.4374   19.4763 C.3     1  UNL1        0.0927
     20 C           3.5234   -3.3959   20.3118 C.3     1  UNL1        0.0179
     21 C           3.2094   -1.9296   20.3483 C.3     1  UNL1        0.0315
     22 H           6.8746   -3.1978   17.4035 H       1  UNL1        0.1549
     23 C          -0.2325    3.5246   23.3545 C.2     1  UNL1        0.0209
     24 C          -0.3907    3.0087   24.7541 C.2     1  UNL1        0.0016
     25 C          -0.3644    3.9617   25.9122 C.ar    1  UNL1        0.0000
     26 C           0.9107    4.1866   26.6696 C.ar    1  UNL1       -0.0003
     27 C           0.9369    5.1397   27.8277 C.ar    1  UNL1       -0.0029
     28 C          -0.3118    5.8678   28.2283 C.ar    1  UNL1       -0.0061
     29 C          -1.5869    5.6429   27.4708 C.ar    1  UNL1       -0.0029
     30 C          -1.6132    4.6899   26.3128 C.ar    1  UNL1       -0.0003
     31 C          -0.2855    6.8208   29.3864 C.3     1  UNL1        0.0993
     32 N          -0.5469    6.3199   30.7758 N.3     1  UNL1       -0.2646
     33 C          -1.4802    7.0692   31.6800 C.3     1  UNL1        0.1049
     34 C          -1.7417    6.5683   33.0696 C.3     1  UNL1        0.1595
     35 O          -1.0698    5.3181   33.5549 O.3     1  UNL1       -0.3508
     36 C          -0.1365    4.5688   32.6507 C.3     1  UNL1        0.1595
     37 C           0.1250    5.0697   31.2612 C.3     1  UNL1        0.1049
@<TRIPOS>BOND
     1    10    11    2
     2    11    12   am
     3    12    13    1
     4    13    14   ar
     5    14    15   ar
     6    15    16   ar
     7    16    17   ar
     8    17    18   ar
     9    18    19    1
    10    19    20    1
    11    20    21    1
    12    21     1    1
    13     1     2    2
    14     2     3    1
    15     3     4    2
    16     4     5    1
    17     5    23    1
    18    23    24    2
    19    24    25    1
    20    25    26   ar
    21    26    27   ar
    22    27    28   ar
    23    28    31    1
    24    31    32    1
    25    32    33    1
    26    33    34    1
    27    34    35    1
    28    35    36    1
    29    36    37    1
    30    28    29   ar
    31    29    30   ar
    32     5     6    2
    33     6     7    1
    34     7     8    2
    35     8     9    1
    36    19    11    1
    37     9     1    1
    38    18    13   ar
    39    21    19    1
    40     8     4    1
    41    30    25   ar
    42    37    32    1
    43    12    22    1
@<TRIPOS>MOLECULE
*****
 37 43 0 0 0
SMALL
GASTEIGER

@<TRIPOS>ATOM
      1 C           2.6979   -1.0063   21.3883 C.2     1  UNL1       -0.0378
      2 C           3.1291   -0.8750   22.8191 C.2     1  UNL1       -0.0080
      3 C           2.4609    0.1254   23.7149 C.2     1  UNL1        0.0022
      4 C           1.3614    0.9945   23.1801 C.2     1  UNL1        0.0350
      5 C           0.5241    2.0616   23.8205 C.2     1  UNL1        0.1040
      6 N          -0.4247    2.5897   22.7856 N.2     1  UNL1       -0.1483
      7 N          -0.1736    1.8490   21.5056 N.2     1  UNL1       -0.1520
      8 C           0.9302    0.8631   21.7495 C.2     1  UNL1        0.0860
      9 C           1.5985   -0.1374   20.8536 C.3     1  UNL1        0.0697
     10 O           4.9166   -4.6809   18.2819 O.2     1  UNL1       -0.2744
     11 C           5.2200   -3.2432   18.5832 C.2     1  UNL1        0.2293
     12 N           6.3469   -2.4399   18.0046 N.am    1  UNL1       -0.2839
     13 C           6.2733   -1.0566   18.5798 C.ar    1  UNL1        0.0467
     14 C           7.1223    0.1627   18.3737 C.ar    1  UNL1        0.0144
     15 C           6.7989    1.4336   19.1017 C.ar    1  UNL1        0.0013
     16 C           5.6265    1.4853   20.0358 C.ar    1  UNL1       -0.0002
     17 C           4.7774    0.2661   20.2420 C.ar    1  UNL1       -0.0026
     18 C           5.1008   -1.0048   19.5140 C.ar    1  UNL1       -0.0008
     19 C           4.4499   -2.3563   19.5161 C.3     1  UNL1        0.0927
     20 C           3.4398   -3.3901   19.9172 C.3     1  UNL1        0.0179
     21 C           3.3662   -2.0068   20.4924 C.3     1  UNL1        0.0315
     22 H           7.0173   -2.7638   17.3603 H       1  UNL1        0.1549
     23 C           0.6188    2.5200   25.2456 C.2     1  UNL1        0.0209
     24 C           0.4494    1.5343   26.3634 C.2     1  UNL1        0.0016
     25 C           0.5441    1.9928   27.7885 C.ar    1  UNL1        0.0000
     26 C           0.4924    0.9910   28.9037 C.ar    1  UNL1       -0.0003
     27 C           0.5871    1.4495   30.3288 C.ar    1  UNL1       -0.0029
     28 C           0.7335    2.9098   30.6387 C.ar    1  UNL1       -0.0061
     29 C           0.7853    3.9117   29.5234 C.ar    1  UNL1       -0.0029
     30 C           0.6905    3.4532   28.0984 C.ar    1  UNL1       -0.0003
     31 C           0.8283    3.3683   32.0638 C.3     1  UNL1        0.0993
     32 N           0.5179    4.7930   32.4154 N.3     1  UNL1       -0.2646
     33 C          -0.8755    5.1809   32.8130 C.3     1  UNL1        0.1049
     34 C          -1.1859    6.6057   33.1646 C.3     1  UNL1        0.1595
     35 O          -0.1029    7.6426   33.1186 O.3     1  UNL1       -0.3508
     36 C           1.2905    7.2546   32.7210 C.3     1  UNL1        0.1595
     37 C           1.6008    5.8298   32.3694 C.3     1  UNL1        0.1049
@<TRIPOS>BOND
     1    10    11    2
     2    11    12   am
     3    12    13    1
     4    13    14   ar
     5    14    15   ar
     6    15    16   ar
     7    16    17   ar
     8    17    18   ar
     9    18    19    1
    10    19    20    1
    11    20    21    1
    12    21     1    1
    13     1     2    2
    14     2     3    1
    15     3     4    2
    16     4     5    1
    17     5    23    1
    18    23    24    2
    19    24    25    1
    20    25    26   ar
    21    26    27   ar
    22    27    28   ar
    23    28    31    1
    24    31    32    1
    25    32    33    1
    26    33    34    1
    27    34    35    1
    28    35    36    1
    29    36    37    1
    30    28    29   ar
    31    29    30   ar
    32     5     6    2
    33     6     7    1
    34     7     8    2
    35     8     9    1
    36    19    11    1
    37     9     1    1
    38    18    13   ar
    39    21    19    1
    40     8     4    1
    41    30    25   ar
    42    37    32    1
    43    12    22    1
