@<TRIPOS>MOLECULE
*****
 31 35 0 0 0
SMALL
GASTEIGER

@<TRIPOS>ATOM
      1 C           7.2731   -1.7602   32.9151 C.3     1  UNL1        0.0521
      2 C           6.0707   -1.3818   32.1020 C.ar    1  UNL1        0.0610
      3 C           6.1732   -1.2931   30.6081 C.ar    1  UNL1        0.0354
      4 C           4.9708   -0.9146   29.7950 C.ar    1  UNL1        0.1031
      5 N           5.0734   -0.8259   28.3011 N.ar    1  UNL1       -0.2262
      6 C           3.8710   -0.4475   27.4880 C.ar    1  UNL1        0.1633
      7 C           2.5661   -0.1578   28.1688 C.ar    1  UNL1        0.1604
      8 N           2.4636   -0.2465   29.6626 N.ar    1  UNL1       -0.2249
      9 C           3.6660   -0.6249   30.4758 C.ar    1  UNL1        0.1195
     10 C           3.5635   -0.7136   31.9696 C.ar    1  UNL1        0.1190
     11 N           4.7659   -1.0920   32.7827 N.ar    1  UNL1       -0.2465
     12 N           3.9735   -0.3588   25.9942 N.pl3   1  UNL1       -0.2908
     13 C           4.0618    0.9816   25.3267 C.3     1  UNL1        0.0960
     14 C           4.1643    1.0703   23.8328 C.3     1  UNL1        0.0650
     15 C           4.1784   -0.1815   23.0064 C.3     1  UNL1        0.1694
     16 C           4.0901   -1.5219   23.6739 C.3     1  UNL1        0.0650
     17 C           3.9876   -1.6106   25.1677 C.3     1  UNL1        0.0960
     18 O           4.2809   -0.0928   21.5126 O.3     1  UNL1       -0.4768
     19 C           4.4109   -1.3431   20.6942 C.ar    1  UNL1        0.1657
     20 C           5.7622   -1.9529   20.4659 C.ar    1  UNL1        0.0415
     21 C           5.8922   -3.2032   19.6475 C.ar    1  UNL1        0.0329
     22 C           4.6710   -3.8437   19.0573 C.ar    1  UNL1        0.1426
     23 F           4.8010   -5.0940   18.2389 F       1  UNL1       -0.2041
     24 C           3.3196   -3.2338   19.2856 C.ar    1  UNL1        0.0624
     25 C           3.1896   -1.9835   20.1040 C.ar    1  UNL1        0.1760
     26 F           1.8383   -1.3737   20.3323 F       1  UNL1       -0.2009
     27 N           1.3638    0.2206   27.3557 N.pl3   1  UNL1       -0.3175
     28 H           1.4659    0.4521   26.4043 H       1  UNL1        0.1482
     29 C           0.0058    0.2464   27.9922 C.3     1  UNL1        0.0706
     30 C          -1.2612    0.9790   28.3207 C.3     1  UNL1        0.0212
     31 C          -1.0794   -0.4417   28.7662 C.3     1  UNL1        0.0212
@<TRIPOS>BOND
     1     1     2    1
     2     2     3   ar
     3     3     4   ar
     4     4     5   ar
     5     5     6   ar
     6     6    12    1
     7    12    13    1
     8    13    14    1
     9    14    15    1
    10    15    18    1
    11    18    19    1
    12    19    20   ar
    13    20    21   ar
    14    21    22   ar
    15    22    23    1
    16    22    24   ar
    17    24    25   ar
    18    25    26    1
    19    15    16    1
    20    16    17    1
    21     6     7   ar
    22     7    27    1
    23    27    29    1
    24    29    30    1
    25    30    31    1
    26     7     8   ar
    27     8     9   ar
    28     9    10   ar
    29    10    11   ar
    30    11     2   ar
    31     9     4   ar
    32    17    12    1
    33    31    29    1
    34    25    19   ar
    35    27    28    1
@<TRIPOS>MOLECULE
*****
 31 35 0 0 0
SMALL
GASTEIGER

@<TRIPOS>ATOM
      1 C           7.2728   -0.2977   32.1877 C.3     1  UNL1        0.0521
      2 C           7.1152   -1.5888   31.4406 C.ar    1  UNL1        0.0610
      3 C           7.1143   -1.5921   29.9407 C.ar    1  UNL1        0.0354
      4 C           6.9568   -2.8833   29.1936 C.ar    1  UNL1        0.1031
      5 N           6.9559   -2.8865   27.6935 N.ar    1  UNL1       -0.2262
      6 C           6.7983   -4.1776   26.9464 C.ar    1  UNL1        0.1633
      7 C           6.6417   -5.4655   27.6994 C.ar    1  UNL1        0.1604
      8 N           6.6426   -5.4622   29.1993 N.ar    1  UNL1       -0.2249
      9 C           6.8001   -4.1711   29.9464 C.ar    1  UNL1        0.1195
     10 C           6.8010   -4.1678   31.4464 C.ar    1  UNL1        0.1190
     11 N           6.9586   -2.8767   32.1935 N.ar    1  UNL1       -0.2465
     12 N           6.7974   -4.1809   25.4465 N.pl3   1  UNL1       -0.2908
     13 C           5.7365   -3.4323   24.6955 C.3     1  UNL1        0.0960
     14 C           5.7356   -3.4356   23.1954 C.3     1  UNL1        0.0650
     15 C           6.7956   -4.1875   22.4465 C.3     1  UNL1        0.1694
     16 C           7.8565   -4.9361   23.1975 C.3     1  UNL1        0.0650
     17 C           7.8574   -4.9329   24.6974 C.3     1  UNL1        0.0960
     18 O           6.7947   -4.1908   20.9465 O.3     1  UNL1       -0.4768
     19 C           5.8797   -3.2699   20.1950 C.ar    1  UNL1        0.1657
     20 C           6.4033   -1.9760   19.6458 C.ar    1  UNL1        0.0415
     21 C           5.4883   -1.0552   18.8944 C.ar    1  UNL1        0.0329
     22 C           4.0496   -1.4282   18.6921 C.ar    1  UNL1        0.1426
     23 F           3.1346   -0.5073   17.9406 F       1  UNL1       -0.2041
     24 C           3.5259   -2.7221   19.2413 C.ar    1  UNL1        0.0624
     25 C           4.4409   -3.6430   19.9927 C.ar    1  UNL1        0.1760
     26 F           3.9172   -4.9368   20.5419 F       1  UNL1       -0.2009
     27 N           6.4841   -6.7566   26.9523 N.pl3   1  UNL1       -0.3175
     28 H           5.6345   -6.9630   26.4997 H       1  UNL1        0.1482
     29 C           7.6210   -7.7334   26.8947 C.3     1  UNL1        0.0706
     30 C           8.3358   -8.9290   27.4509 C.3     1  UNL1        0.0212
     31 C           8.8754   -8.2295   26.2387 C.3     1  UNL1        0.0212
@<TRIPOS>BOND
     1     1     2    1
     2     2     3   ar
     3     3     4   ar
     4     4     5   ar
     5     5     6   ar
     6     6    12    1
     7    12    13    1
     8    13    14    1
     9    14    15    1
    10    15    18    1
    11    18    19    1
    12    19    20   ar
    13    20    21   ar
    14    21    22   ar
    15    22    23    1
    16    22    24   ar
    17    24    25   ar
    18    25    26    1
    19    15    16    1
    20    16    17    1
    21     6     7   ar
    22     7    27    1
    23    27    29    1
    24    29    30    1
    25    30    31    1
    26     7     8   ar
    27     8     9   ar
    28     9    10   ar
    29    10    11   ar
    30    11     2   ar
    31     9     4   ar
    32    17    12    1
    33    31    29    1
    34    25    19   ar
    35    27    28    1
@<TRIPOS>MOLECULE
*****
 31 35 0 0 0
SMALL
GASTEIGER

@<TRIPOS>ATOM
      1 C          -0.8941    3.1799   23.2628 C.3     1  UNL1        0.0521
      2 C          -0.1462    2.3162   22.2909 C.ar    1  UNL1        0.0610
      3 C           1.0295    1.5088   22.7555 C.ar    1  UNL1        0.0354
      4 C           1.7774    0.6452   21.7835 C.ar    1  UNL1        0.1031
      5 N           2.9532   -0.1622   22.2482 N.ar    1  UNL1       -0.2262
      6 C           3.7011   -1.0259   21.2762 C.ar    1  UNL1        0.1633
      7 C           3.2732   -1.0822   19.8396 C.ar    1  UNL1        0.1604
      8 N           2.0975   -0.2749   19.3750 N.ar    1  UNL1       -0.2249
      9 C           1.3496    0.5888   20.3470 C.ar    1  UNL1        0.1195
     10 C           0.1739    1.3961   19.8824 C.ar    1  UNL1        0.1190
     11 N          -0.5740    2.2598   20.8543 N.ar    1  UNL1       -0.2465
     12 N           4.8768   -1.8332   21.7408 N.pl3   1  UNL1       -0.2908
     13 C           4.6601   -3.1644   22.3974 C.3     1  UNL1        0.0960
     14 C           5.8359   -3.9717   22.8621 C.3     1  UNL1        0.0650
     15 C           7.2282   -3.4479   22.6700 C.3     1  UNL1        0.1694
     16 C           7.4449   -2.1168   22.0134 C.3     1  UNL1        0.0650
     17 C           6.2692   -1.3094   21.5488 C.3     1  UNL1        0.0960
     18 O           8.4039   -4.2552   23.1346 O.3     1  UNL1       -0.4768
     19 C           8.2300   -5.2791   24.2169 C.ar    1  UNL1        0.1657
     20 C           7.9300   -4.8433   25.6205 C.ar    1  UNL1        0.0415
     21 C           7.7561   -5.8672   26.7028 C.ar    1  UNL1        0.0329
     22 C           7.8822   -7.3270   26.3815 C.ar    1  UNL1        0.1426
     23 F           7.7083   -8.3509   27.4638 F       1  UNL1       -0.2041
     24 C           8.1822   -7.7629   24.9779 C.ar    1  UNL1        0.0624
     25 C           8.3562   -6.7389   23.8956 C.ar    1  UNL1        0.1760
     26 F           8.6562   -7.1748   22.4921 F       1  UNL1       -0.2009
     27 N           4.0211   -1.9459   18.8676 N.pl3   1  UNL1       -0.3175
     28 H           4.5667   -1.5323   18.1603 H       1  UNL1        0.1482
     29 C           3.9376   -3.4398   18.9734 C.3     1  UNL1        0.0706
     30 C           4.6077   -4.7818   18.9708 C.3     1  UNL1        0.0212
     31 C           3.1227   -4.6854   19.1593 C.3     1  UNL1        0.0212
@<TRIPOS>BOND
     1     1     2    1
     2     2     3   ar
     3     3     4   ar
     4     4     5   ar
     5     5     6   ar
     6     6    12    1
     7    12    13    1
     8    13    14    1
     9    14    15    1
    10    15    18    1
    11    18    19    1
    12    19    20   ar
    13    20    21   ar
    14    21    22   ar
    15    22    23    1
    16    22    24   ar
    17    24    25   ar
    18    25    26    1
    19    15    16    1
    20    16    17    1
    21     6     7   ar
    22     7    27    1
    23    27    29    1
    24    29    30    1
    25    30    31    1
    26     7     8   ar
    27     8     9   ar
    28     9    10   ar
    29    10    11   ar
    30    11     2   ar
    31     9     4   ar
    32    17    12    1
    33    31    29    1
    34    25    19   ar
    35    27    28    1
@<TRIPOS>MOLECULE
*****
 31 35 0 0 0
SMALL
GASTEIGER

@<TRIPOS>ATOM
      1 C          -6.9643    4.9263   20.7928 C.3     1  UNL1        0.0521
      2 C          -5.6207    4.6473   21.3985 C.ar    1  UNL1        0.0610
      3 C          -4.5958    3.8717   20.6252 C.ar    1  UNL1        0.0354
      4 C          -3.2523    3.5926   21.2310 C.ar    1  UNL1        0.1031
      5 N          -2.2274    2.8169   20.4576 N.ar    1  UNL1       -0.2262
      6 C          -0.8838    2.5379   21.0634 C.ar    1  UNL1        0.1633
      7 C          -0.5651    3.0346   22.4425 C.ar    1  UNL1        0.1604
      8 N          -1.5899    3.8103   23.2157 N.ar    1  UNL1       -0.2249
      9 C          -2.9335    4.0893   22.6100 C.ar    1  UNL1        0.1195
     10 C          -3.9584    4.8650   23.3833 C.ar    1  UNL1        0.1190
     11 N          -5.3020    5.1440   22.7775 N.ar    1  UNL1       -0.2465
     12 N           0.1411    1.7623   20.2901 N.pl3   1  UNL1       -0.2908
     13 C           1.0238    2.4642   19.3011 C.3     1  UNL1        0.0960
     14 C           2.0487    1.6884   18.5278 C.3     1  UNL1        0.0650
     15 C           2.1908    0.2109   18.7436 C.3     1  UNL1        0.1694
     16 C           1.3081   -0.4910   19.7326 C.3     1  UNL1        0.0650
     17 C           0.2832    0.2846   20.5059 C.3     1  UNL1        0.0960
     18 O           3.2157   -0.5648   17.9703 O.3     1  UNL1       -0.4768
     19 C           4.1487   -1.4959   18.6861 C.ar    1  UNL1        0.1657
     20 C           3.9108   -2.9762   18.6424 C.ar    1  UNL1        0.0415
     21 C           4.8439   -3.9074   19.3582 C.ar    1  UNL1        0.0329
     22 C           6.0149   -3.3581   20.1177 C.ar    1  UNL1        0.1426
     23 F           6.9480   -4.2892   20.8336 F       1  UNL1       -0.2041
     24 C           6.2529   -1.8777   20.1616 C.ar    1  UNL1        0.0624
     25 C           5.3198   -0.9466   19.4457 C.ar    1  UNL1        0.1760
     26 F           5.5578    0.5337   19.4895 F       1  UNL1       -0.2009
     27 N           0.7785    2.7556   23.0482 N.pl3   1  UNL1       -0.3175
     28 H           1.5880    3.1554   22.6557 H       1  UNL1        0.1482
     29 C           0.8887    1.8675   24.2520 C.3     1  UNL1        0.0706
     30 C           0.3132    1.3359   25.5311 C.3     1  UNL1        0.0212
     31 C           1.6550    0.8610   25.0580 C.3     1  UNL1        0.0212
@<TRIPOS>BOND
     1     1     2    1
     2     2     3   ar
     3     3     4   ar
     4     4     5   ar
     5     5     6   ar
     6     6    12    1
     7    12    13    1
     8    13    14    1
     9    14    15    1
    10    15    18    1
    11    18    19    1
    12    19    20   ar
    13    20    21   ar
    14    21    22   ar
    15    22    23    1
    16    22    24   ar
    17    24    25   ar
    18    25    26    1
    19    15    16    1
    20    16    17    1
    21     6     7   ar
    22     7    27    1
    23    27    29    1
    24    29    30    1
    25    30    31    1
    26     7     8   ar
    27     8     9   ar
    28     9    10   ar
    29    10    11   ar
    30    11     2   ar
    31     9     4   ar
    32    17    12    1
    33    31    29    1
    34    25    19   ar
    35    27    28    1
@<TRIPOS>MOLECULE
*****
 31 35 0 0 0
SMALL
GASTEIGER

@<TRIPOS>ATOM
      1 C           3.4819    0.5427   32.5379 C.3     1  UNL1        0.0521
      2 C           2.6557    0.8265   31.3186 C.ar    1  UNL1        0.0610
      3 C           3.2298    0.5932   29.9526 C.ar    1  UNL1        0.0354
      4 C           2.4036    0.8770   28.7332 C.ar    1  UNL1        0.1031
      5 N           2.9779    0.6437   27.3672 N.ar    1  UNL1       -0.2262
      6 C           2.1517    0.9275   26.1479 C.ar    1  UNL1        0.1633
      7 C           0.7512    1.4446   26.2945 C.ar    1  UNL1        0.1604
      8 N           0.1771    1.6779   27.6605 N.ar    1  UNL1       -0.2249
      9 C           1.0033    1.3941   28.8798 C.ar    1  UNL1        0.1195
     10 C           0.4291    1.6273   30.2458 C.ar    1  UNL1        0.1190
     11 N           1.2553    1.3435   31.4651 N.ar    1  UNL1       -0.2465
     12 N           2.7259    0.6942   24.7819 N.pl3   1  UNL1       -0.2908
     13 C           2.9500   -0.7055   24.2916 C.3     1  UNL1        0.0960
     14 C           3.5242   -0.9388   22.9256 C.3     1  UNL1        0.0650
     15 C           3.8742    0.2277   22.0500 C.3     1  UNL1        0.1694
     16 C           3.6501    1.6275   22.5403 C.3     1  UNL1        0.0650
     17 C           3.0759    1.8608   23.9062 C.3     1  UNL1        0.0960
     18 O           4.4484   -0.0055   20.6840 O.3     1  UNL1       -0.4768
     19 C           4.5396   -1.3991   20.1367 C.ar    1  UNL1        0.1657
     20 C           5.8768   -2.0643   19.9977 C.ar    1  UNL1        0.0415
     21 C           5.9679   -3.4579   19.4504 C.ar    1  UNL1        0.0329
     22 C           4.7219   -4.1864   19.0421 C.ar    1  UNL1        0.1426
     23 F           4.8131   -5.5800   18.4948 F       1  UNL1       -0.2041
     24 C           3.3846   -3.5212   19.1811 C.ar    1  UNL1        0.0624
     25 C           3.2934   -2.1276   19.7284 C.ar    1  UNL1        0.1760
     26 F           1.9563   -1.4624   19.8674 F       1  UNL1       -0.2009
     27 N          -0.0750    1.7284   25.0752 N.pl3   1  UNL1       -0.3175
     28 H           0.0587    1.1991   24.2559 H       1  UNL1        0.1482
     29 C          -1.1048    2.8186   25.1041 C.3     1  UNL1        0.0706
     30 C          -1.5829    4.1662   24.6513 C.3     1  UNL1        0.0212
     31 C          -2.4105    3.3591   25.6070 C.3     1  UNL1        0.0212
@<TRIPOS>BOND
     1     1     2    1
     2     2     3   ar
     3     3     4   ar
     4     4     5   ar
     5     5     6   ar
     6     6    12    1
     7    12    13    1
     8    13    14    1
     9    14    15    1
    10    15    18    1
    11    18    19    1
    12    19    20   ar
    13    20    21   ar
    14    21    22   ar
    15    22    23    1
    16    22    24   ar
    17    24    25   ar
    18    25    26    1
    19    15    16    1
    20    16    17    1
    21     6     7   ar
    22     7    27    1
    23    27    29    1
    24    29    30    1
    25    30    31    1
    26     7     8   ar
    27     8     9   ar
    28     9    10   ar
    29    10    11   ar
    30    11     2   ar
    31     9     4   ar
    32    17    12    1
    33    31    29    1
    34    25    19   ar
    35    27    28    1
@<TRIPOS>MOLECULE
*****
 31 35 0 0 0
SMALL
GASTEIGER

@<TRIPOS>ATOM
      1 C           4.6752   -4.9450   18.7969 C.3     1  UNL1        0.0521
      2 C           4.6897   -3.4573   18.6055 C.ar    1  UNL1        0.0610
      3 C           3.4944   -2.6393   18.9954 C.ar    1  UNL1        0.0354
      4 C           3.5089   -1.1516   18.8041 C.ar    1  UNL1        0.1031
      5 N           2.3136   -0.3335   19.1940 N.ar    1  UNL1       -0.2262
      6 C           2.3281    1.1541   19.0027 C.ar    1  UNL1        0.1633
      7 C           3.5379    1.8238   18.4213 C.ar    1  UNL1        0.1604
      8 N           4.7332    1.0057   18.0313 N.ar    1  UNL1       -0.2249
      9 C           4.7187   -0.4820   18.2227 C.ar    1  UNL1        0.1195
     10 C           5.9139   -1.3000   17.8328 C.ar    1  UNL1        0.1190
     11 N           5.8994   -2.7877   18.0241 N.ar    1  UNL1       -0.2465
     12 N           1.1328    1.9722   19.3926 N.pl3   1  UNL1       -0.2908
     13 C           0.3757    2.7387   18.3489 C.3     1  UNL1        0.0960
     14 C          -0.8197    3.5567   18.7390 C.3     1  UNL1        0.0650
     15 C          -1.2578    3.6083   20.1726 C.3     1  UNL1        0.1694
     16 C          -0.5007    2.8418   21.2163 C.3     1  UNL1        0.0650
     17 C           0.6946    2.0237   20.8263 C.3     1  UNL1        0.0960
     18 O          -2.4531    4.4263   20.5625 O.3     1  UNL1       -0.4768
     19 C          -3.0811    4.2405   21.9120 C.ar    1  UNL1        0.1657
     20 C          -2.5128    4.9462   23.1073 C.ar    1  UNL1        0.0415
     21 C          -3.1409    4.7605   24.4568 C.ar    1  UNL1        0.0329
     22 C          -4.3373    3.8690   24.6109 C.ar    1  UNL1        0.1426
     23 F          -4.9654    3.6833   25.9603 F       1  UNL1       -0.2041
     24 C          -4.9058    3.1633   23.4155 C.ar    1  UNL1        0.0624
     25 C          -4.2777    3.3490   22.0660 C.ar    1  UNL1        0.1760
     26 F          -4.8460    2.6433   20.8707 F       1  UNL1       -0.2009
     27 N           3.5524    3.3114   18.2299 N.pl3   1  UNL1       -0.3175
     28 H           2.8209    3.8615   18.5925 H       1  UNL1        0.1482
     29 C           4.6815    3.9609   17.4861 C.3     1  UNL1        0.0706
     30 C           5.1707    4.8092   16.3499 C.3     1  UNL1        0.0212
     31 C           6.1479    4.2377   17.3340 C.3     1  UNL1        0.0212
@<TRIPOS>BOND
     1     1     2    1
     2     2     3   ar
     3     3     4   ar
     4     4     5   ar
     5     5     6   ar
     6     6    12    1
     7    12    13    1
     8    13    14    1
     9    14    15    1
    10    15    18    1
    11    18    19    1
    12    19    20   ar
    13    20    21   ar
    14    21    22   ar
    15    22    23    1
    16    22    24   ar
    17    24    25   ar
    18    25    26    1
    19    15    16    1
    20    16    17    1
    21     6     7   ar
    22     7    27    1
    23    27    29    1
    24    29    30    1
    25    30    31    1
    26     7     8   ar
    27     8     9   ar
    28     9    10   ar
    29    10    11   ar
    30    11     2   ar
    31     9     4   ar
    32    17    12    1
    33    31    29    1
    34    25    19   ar
    35    27    28    1
@<TRIPOS>MOLECULE
*****
 31 35 0 0 0
SMALL
GASTEIGER

@<TRIPOS>ATOM
      1 C           0.1136    3.6725   28.4021 C.3     1  UNL1        0.0521
      2 C          -0.4482    3.6912   27.0114 C.ar    1  UNL1        0.0610
      3 C           0.2965    3.0249   25.8927 C.ar    1  UNL1        0.0354
      4 C          -0.2652    3.0437   24.5020 C.ar    1  UNL1        0.1031
      5 N           0.4795    2.3773   23.3833 N.ar    1  UNL1       -0.2262
      6 C          -0.0823    2.3960   21.9926 C.ar    1  UNL1        0.1633
      7 C          -1.3887    3.0812   21.7206 C.ar    1  UNL1        0.1604
      8 N          -2.1333    3.7475   22.8393 N.ar    1  UNL1       -0.2249
      9 C          -1.5716    3.7287   24.2300 C.ar    1  UNL1        0.1195
     10 C          -2.3162    4.3951   25.3487 C.ar    1  UNL1        0.1190
     11 N          -1.7545    4.3763   26.7394 N.ar    1  UNL1       -0.2465
     12 N           0.6624    1.7297   20.8739 N.pl3   1  UNL1       -0.2908
     13 C           1.4647    2.5541   19.9113 C.3     1  UNL1        0.0960
     14 C           2.2094    1.8877   18.7926 C.3     1  UNL1        0.0650
     15 C           2.1517    0.3970   18.6365 C.3     1  UNL1        0.1694
     16 C           1.3493   -0.4274   19.5991 C.3     1  UNL1        0.0650
     17 C           0.6047    0.2389   20.7178 C.3     1  UNL1        0.0960
     18 O           2.8963   -0.2693   17.5178 O.3     1  UNL1       -0.4768
     19 C           4.2679   -0.8273   17.7575 C.ar    1  UNL1        0.1657
     20 C           5.4796   -0.0112   17.4175 C.ar    1  UNL1        0.0415
     21 C           6.8511   -0.5692   17.6572 C.ar    1  UNL1        0.0329
     22 C           7.0110   -1.9433   18.2369 C.ar    1  UNL1        0.1426
     23 F           8.3826   -2.5013   18.4765 F       1  UNL1       -0.2041
     24 C           5.7993   -2.7595   18.5769 C.ar    1  UNL1        0.0624
     25 C           4.4277   -2.2015   18.3373 C.ar    1  UNL1        0.1760
     26 F           3.2161   -3.0177   18.6773 F       1  UNL1       -0.2009
     27 N          -1.9504    3.0999   20.3299 N.pl3   1  UNL1       -0.3175
     28 H          -1.4291    2.7255   19.5833 H       1  UNL1        0.1482
     29 C          -3.3064    3.6891   20.0765 C.3     1  UNL1        0.0706
     30 C          -4.7512    3.5149   19.7134 C.3     1  UNL1        0.0212
     31 C          -4.2101    4.8839   20.0009 C.3     1  UNL1        0.0212
@<TRIPOS>BOND
     1     1     2    1
     2     2     3   ar
     3     3     4   ar
     4     4     5   ar
     5     5     6   ar
     6     6    12    1
     7    12    13    1
     8    13    14    1
     9    14    15    1
    10    15    18    1
    11    18    19    1
    12    19    20   ar
    13    20    21   ar
    14    21    22   ar
    15    22    23    1
    16    22    24   ar
    17    24    25   ar
    18    25    26    1
    19    15    16    1
    20    16    17    1
    21     6     7   ar
    22     7    27    1
    23    27    29    1
    24    29    30    1
    25    30    31    1
    26     7     8   ar
    27     8     9   ar
    28     9    10   ar
    29    10    11   ar
    30    11     2   ar
    31     9     4   ar
    32    17    12    1
    33    31    29    1
    34    25    19   ar
    35    27    28    1
@<TRIPOS>MOLECULE
*****
 31 35 0 0 0
SMALL
GASTEIGER

@<TRIPOS>ATOM
      1 C           0.8498    5.8441   34.3367 C.3     1  UNL1        0.0521
      2 C           1.0928    4.5862   33.5564 C.ar    1  UNL1        0.0610
      3 C           0.8935    4.5755   32.0698 C.ar    1  UNL1        0.0354
      4 C           1.1364    3.3176   31.2896 C.ar    1  UNL1        0.1031
      5 N           0.9372    3.3070   29.8029 N.ar    1  UNL1       -0.2262
      6 C           1.1801    2.0491   29.0226 C.ar    1  UNL1        0.1633
      7 C           1.6223    0.8019   29.7291 C.ar    1  UNL1        0.1604
      8 N           1.8216    0.8126   31.2158 N.ar    1  UNL1       -0.2249
      9 C           1.5786    2.0705   31.9960 C.ar    1  UNL1        0.1195
     10 C           1.7779    2.0812   33.4826 C.ar    1  UNL1        0.1190
     11 N           1.5349    3.3391   34.2629 N.ar    1  UNL1       -0.2465
     12 N           0.9809    2.0384   27.5360 N.pl3   1  UNL1       -0.2908
     13 C           2.0975    2.4579   26.6266 C.3     1  UNL1        0.0960
     14 C           1.8982    2.4471   25.1398 C.3     1  UNL1        0.0650
     15 C           0.5823    2.0169   24.5626 C.3     1  UNL1        0.1694
     16 C          -0.5344    1.5975   25.4721 C.3     1  UNL1        0.0650
     17 C          -0.3351    1.6082   26.9587 C.3     1  UNL1        0.0960
     18 O           0.3830    2.0062   23.0760 O.3     1  UNL1       -0.4768
     19 C           1.0449    0.9527   22.2381 C.ar    1  UNL1        0.1657
     20 C           2.1773    0.1472   22.8028 C.ar    1  UNL1        0.0415
     21 C           2.8392   -0.9063   21.9649 C.ar    1  UNL1        0.0329
     22 C           2.3687   -1.1544   20.5624 C.ar    1  UNL1        0.1426
     23 F           3.0305   -2.2079   19.7246 F       1  UNL1       -0.2041
     24 C           1.2362   -0.3489   19.9977 C.ar    1  UNL1        0.0624
     25 C           0.5743    0.7046   20.8356 C.ar    1  UNL1        0.1760
     26 F          -0.5581    1.5101   20.2709 F       1  UNL1       -0.2009
     27 N           1.8652   -0.4560   28.9489 N.pl3   1  UNL1       -0.3175
     28 H           1.1484   -1.1245   28.8572 H       1  UNL1        0.1482
     29 C           3.2003   -0.6952   28.3084 C.3     1  UNL1        0.0706
     30 C           4.6477   -1.0717   28.4237 C.3     1  UNL1        0.0212
     31 C           4.0654   -0.7331   27.0835 C.3     1  UNL1        0.0212
@<TRIPOS>BOND
     1     1     2    1
     2     2     3   ar
     3     3     4   ar
     4     4     5   ar
     5     5     6   ar
     6     6    12    1
     7    12    13    1
     8    13    14    1
     9    14    15    1
    10    15    18    1
    11    18    19    1
    12    19    20   ar
    13    20    21   ar
    14    21    22   ar
    15    22    23    1
    16    22    24   ar
    17    24    25   ar
    18    25    26    1
    19    15    16    1
    20    16    17    1
    21     6     7   ar
    22     7    27    1
    23    27    29    1
    24    29    30    1
    25    30    31    1
    26     7     8   ar
    27     8     9   ar
    28     9    10   ar
    29    10    11   ar
    30    11     2   ar
    31     9     4   ar
    32    17    12    1
    33    31    29    1
    34    25    19   ar
    35    27    28    1
@<TRIPOS>MOLECULE
*****
 31 35 0 0 0
SMALL
GASTEIGER

@<TRIPOS>ATOM
      1 C           5.7657   -2.4987   32.1507 C.3     1  UNL1        0.0521
      2 C           6.5379   -3.0524   30.9900 C.ar    1  UNL1        0.0610
      3 C           6.1492   -2.6875   29.5880 C.ar    1  UNL1        0.0354
      4 C           6.9214   -3.2412   28.4274 C.ar    1  UNL1        0.1031
      5 N           6.5326   -2.8762   27.0253 N.ar    1  UNL1       -0.2262
      6 C           7.3048   -3.4299   25.8647 C.ar    1  UNL1        0.1633
      7 C           8.4658   -4.3486   26.1061 C.ar    1  UNL1        0.1604
      8 N           8.8545   -4.7136   27.5081 N.ar    1  UNL1       -0.2249
      9 C           8.0823   -4.1599   28.6687 C.ar    1  UNL1        0.1195
     10 C           8.4710   -4.5248   30.0708 C.ar    1  UNL1        0.1190
     11 N           7.6988   -3.9711   31.2314 N.ar    1  UNL1       -0.2465
     12 N           6.9161   -3.0650   24.4627 N.pl3   1  UNL1       -0.2908
     13 C           7.3411   -1.7474   23.8854 C.3     1  UNL1        0.0960
     14 C           6.9524   -1.3825   22.4833 C.3     1  UNL1        0.0650
     15 C           6.1387   -2.3352   21.6585 C.3     1  UNL1        0.1694
     16 C           5.7136   -3.6528   22.2358 C.3     1  UNL1        0.0650
     17 C           6.1023   -4.0177   23.6379 C.3     1  UNL1        0.0960
     18 O           5.7499   -1.9702   20.2565 O.3     1  UNL1       -0.4768
     19 C           4.4143   -1.3427   19.9878 C.ar    1  UNL1        0.1657
     20 C           3.3865   -1.2708   21.0779 C.ar    1  UNL1        0.0415
     21 C           2.0508   -0.6433   20.8091 C.ar    1  UNL1        0.0329
     22 C           1.7429   -0.0877   19.4502 C.ar    1  UNL1        0.1426
     23 F           0.4073    0.5398   19.1814 F       1  UNL1       -0.2041
     24 C           2.7708   -0.1597   18.3600 C.ar    1  UNL1        0.0624
     25 C           4.1065   -0.7872   18.6288 C.ar    1  UNL1        0.1760
     26 F           5.1343   -0.8591   17.5387 F       1  UNL1       -0.2009
     27 N           9.2380   -4.9024   24.9454 N.pl3   1  UNL1       -0.3175
     28 H           9.9688   -4.3779   24.5453 H       1  UNL1        0.1482
     29 C           8.8968   -6.2551   24.3945 C.3     1  UNL1        0.0706
     30 C           8.8584   -7.2175   23.2446 C.3     1  UNL1        0.0212
     31 C           8.3442   -7.6358   24.5902 C.3     1  UNL1        0.0212
@<TRIPOS>BOND
     1     1     2    1
     2     2     3   ar
     3     3     4   ar
     4     4     5   ar
     5     5     6   ar
     6     6    12    1
     7    12    13    1
     8    13    14    1
     9    14    15    1
    10    15    18    1
    11    18    19    1
    12    19    20   ar
    13    20    21   ar
    14    21    22   ar
    15    22    23    1
    16    22    24   ar
    17    24    25   ar
    18    25    26    1
    19    15    16    1
    20    16    17    1
    21     6     7   ar
    22     7    27    1
    23    27    29    1
    24    29    30    1
    25    30    31    1
    26     7     8   ar
    27     8     9   ar
    28     9    10   ar
    29    10    11   ar
    30    11     2   ar
    31     9     4   ar
    32    17    12    1
    33    31    29    1
    34    25    19   ar
    35    27    28    1
