@<TRIPOS>MOLECULE
*****
 25 26 0 0 0
SMALL
GASTEIGER

@<TRIPOS>ATOM
      1 O          -7.7667  -15.1675   22.6012 O.2     1  UNL1       -0.1499
      2 S          -7.4587  -16.5714   23.0304 S.O2    1  UNL1        0.0736
      3 O          -7.2408  -17.7484   23.2387 O.2     1  UNL1       -0.1499
      4 C          -7.1569  -16.0817   24.4158 C.ar    1  UNL1        0.1290
      5 C          -8.2597  -15.9614   25.4255 C.ar    1  UNL1        0.0201
      6 C          -7.9581  -15.4717   26.8108 C.ar    1  UNL1        0.0014
      7 C          -6.5537  -15.1023   27.1865 C.ar    1  UNL1        0.0000
      8 C          -5.4509  -15.2226   26.1768 C.ar    1  UNL1        0.0052
      9 C          -5.7525  -15.7123   24.7914 C.ar    1  UNL1        0.0902
     10 C          -4.6498  -15.8326   23.7818 C.3     1  UNL1        0.4198
     11 F          -3.5470  -15.9528   22.7721 F       1  UNL1       -0.1658
     12 F          -4.3290  -17.2048   24.2956 F       1  UNL1       -0.1658
     13 F          -4.7988  -14.7412   23.2690 F       1  UNL1       -0.1658
     14 N          -7.7603  -17.0611   21.6451 N.pl3   1  UNL1       -0.2135
     15 H          -7.1518  -16.8431   20.9025 H       1  UNL1        0.1738
     16 C          -8.9892  -17.8831   21.3912 C.ar    1  UNL1        0.0839
     17 C          -8.9646  -18.9690   20.3567 C.ar    1  UNL1        0.1146
     18 N         -10.1934  -19.7909   20.1028 N.ar    1  UNL1       -0.2410
     19 C         -11.4468  -19.5268   20.8834 C.ar    1  UNL1        0.1028
     20 C         -11.4714  -18.4409   21.9178 C.ar    1  UNL1        0.0918
     21 C         -10.2426  -17.6190   22.1717 C.ar    1  UNL1        0.0229
     22 C         -12.7248  -18.1769   22.6984 C.3     1  UNL1        0.4201
     23 F         -13.9782  -17.9128   23.4789 F       1  UNL1       -0.1658
     24 F         -13.4524  -17.8648   21.4243 F       1  UNL1       -0.1658
     25 F         -11.9972  -18.4889   23.9724 F       1  UNL1       -0.1658
@<TRIPOS>BOND
     1     1     2    2
     2     2     3    2
     3     2    14    1
     4    14    16    1
     5    16    17   ar
     6    17    18   ar
     7    18    19   ar
     8    19    20   ar
     9    20    22    1
    10    22    23    1
    11    22    24    1
    12    22    25    1
    13    20    21   ar
    14     2     4    1
    15     4     5   ar
    16     5     6   ar
    17     6     7   ar
    18     7     8   ar
    19     8     9   ar
    20     9    10    1
    21    10    11    1
    22    10    12    1
    23    10    13    1
    24    21    16   ar
    25     9     4   ar
    26    14    15    1
@<TRIPOS>MOLECULE
*****
 25 26 0 0 0
SMALL
GASTEIGER

@<TRIPOS>ATOM
      1 O          -7.8238  -19.8197   22.6959 O.2     1  UNL1       -0.1499
      2 S          -7.6518  -18.7959   21.6132 S.O2    1  UNL1        0.0736
      3 O          -7.6332  -18.0259   20.6737 O.2     1  UNL1       -0.1499
      4 C          -6.4385  -18.2593   22.3134 C.ar    1  UNL1        0.1290
      5 C          -5.1015  -18.9042   22.0976 C.ar    1  UNL1        0.0201
      6 C          -3.8883  -18.3677   22.7976 C.ar    1  UNL1        0.0014
      7 C          -4.0120  -17.1863   23.7135 C.ar    1  UNL1        0.0000
      8 C          -5.3490  -16.5414   23.9293 C.ar    1  UNL1        0.0052
      9 C          -6.5623  -17.0779   23.2293 C.ar    1  UNL1        0.0902
     10 C          -7.8993  -16.4330   23.4451 C.3     1  UNL1        0.4198
     11 F          -9.2363  -15.7882   23.6609 F       1  UNL1       -0.1658
     12 F          -7.5732  -15.4074   22.4002 F       1  UNL1       -0.1658
     13 F          -8.2934  -17.1939   24.3064 F       1  UNL1       -0.1658
     14 N          -8.8650  -19.3325   20.9131 N.pl3   1  UNL1       -0.2135
     15 H          -8.7808  -20.0969   20.2985 H       1  UNL1        0.1738
     16 C         -10.2065  -18.7043   21.1494 C.ar    1  UNL1        0.0839
     17 C         -10.8824  -17.9426   20.0481 C.ar    1  UNL1        0.1146
     18 N         -12.2239  -17.3144   20.2845 N.ar    1  UNL1       -0.2410
     19 C         -12.8894  -17.4480   21.6221 C.ar    1  UNL1        0.1028
     20 C         -12.2135  -18.2097   22.7234 C.ar    1  UNL1        0.0918
     21 C         -10.8720  -18.8378   22.4870 C.ar    1  UNL1        0.0229
     22 C         -12.8790  -18.3433   24.0610 C.3     1  UNL1        0.4201
     23 F         -13.5445  -18.4769   25.3986 F       1  UNL1       -0.1658
     24 F         -11.5370  -18.4958   24.7135 F       1  UNL1       -0.1658
     25 F         -14.2210  -18.1907   23.4085 F       1  UNL1       -0.1658
@<TRIPOS>BOND
     1     1     2    2
     2     2     3    2
     3     2    14    1
     4    14    16    1
     5    16    17   ar
     6    17    18   ar
     7    18    19   ar
     8    19    20   ar
     9    20    22    1
    10    22    23    1
    11    22    24    1
    12    22    25    1
    13    20    21   ar
    14     2     4    1
    15     4     5   ar
    16     5     6   ar
    17     6     7   ar
    18     7     8   ar
    19     8     9   ar
    20     9    10    1
    21    10    11    1
    22    10    12    1
    23    10    13    1
    24    21    16   ar
    25     9     4   ar
    26    14    15    1
@<TRIPOS>MOLECULE
*****
 25 26 0 0 0
SMALL
GASTEIGER

@<TRIPOS>ATOM
      1 O          -7.9552  -20.0018   22.5695 O.2     1  UNL1       -0.1499
      2 S          -7.6626  -18.9297   21.5620 S.O2    1  UNL1        0.0736
      3 O          -7.3120  -18.1462   20.7022 O.2     1  UNL1       -0.1499
      4 C          -8.8312  -18.1363   22.0669 C.ar    1  UNL1        0.1290
      5 C          -8.6732  -17.2484   23.2655 C.ar    1  UNL1        0.0201
      6 C          -9.8417  -16.4549   23.7703 C.ar    1  UNL1        0.0014
      7 C         -11.1683  -16.5494   23.0766 C.ar    1  UNL1        0.0000
      8 C         -11.3263  -17.4373   21.8780 C.ar    1  UNL1        0.0052
      9 C         -10.1578  -18.2307   21.3731 C.ar    1  UNL1        0.0902
     10 C         -10.3158  -19.1186   20.1745 C.3     1  UNL1        0.4198
     11 F         -10.4738  -20.0065   18.9759 F       1  UNL1       -0.1658
     12 F         -10.7218  -20.2528   21.0683 F       1  UNL1       -0.1658
     13 F         -10.0050  -18.2945   19.3377 F       1  UNL1       -0.1658
     14 N          -6.4941  -19.7231   21.0571 N.pl3   1  UNL1       -0.2135
     15 H          -6.6412  -20.5948   20.6238 H       1  UNL1        0.1738
     16 C          -5.1012  -19.1885   21.2124 C.ar    1  UNL1        0.0839
     17 C          -4.5303  -18.9692   22.5821 C.ar    1  UNL1        0.1146
     18 N          -3.1375  -18.4345   22.7374 N.ar    1  UNL1       -0.2410
     19 C          -2.3155  -18.1191   21.5229 C.ar    1  UNL1        0.1028
     20 C          -2.8864  -18.3384   20.1533 C.ar    1  UNL1        0.0918
     21 C          -4.2792  -18.8730   19.9980 C.ar    1  UNL1        0.0229
     22 C          -2.0644  -18.0229   18.9388 C.3     1  UNL1        0.4201
     23 F          -1.2424  -17.7075   17.7244 F       1  UNL1       -0.1658
     24 F          -0.9212  -18.8097   19.5082 F       1  UNL1       -0.1658
     25 F          -3.2075  -17.2362   18.3694 F       1  UNL1       -0.1658
@<TRIPOS>BOND
     1     1     2    2
     2     2     3    2
     3     2    14    1
     4    14    16    1
     5    16    17   ar
     6    17    18   ar
     7    18    19   ar
     8    19    20   ar
     9    20    22    1
    10    22    23    1
    11    22    24    1
    12    22    25    1
    13    20    21   ar
    14     2     4    1
    15     4     5   ar
    16     5     6   ar
    17     6     7   ar
    18     7     8   ar
    19     8     9   ar
    20     9    10    1
    21    10    11    1
    22    10    12    1
    23    10    13    1
    24    21    16   ar
    25     9     4   ar
    26    14    15    1
@<TRIPOS>MOLECULE
*****
 25 26 0 0 0
SMALL
GASTEIGER

@<TRIPOS>ATOM
      1 O          -8.2623  -17.6515   21.0447 O.2     1  UNL1       -0.1499
      2 S          -9.1337  -18.7656   20.5451 S.O2    1  UNL1        0.0736
      3 O          -9.7181  -19.7205   20.0732 O.2     1  UNL1       -0.1499
      4 C         -10.3096  -18.1652   21.2571 C.ar    1  UNL1        0.1290
      5 C         -11.0948  -17.0626   20.6107 C.ar    1  UNL1        0.0201
      6 C         -12.2706  -16.4622   21.3226 C.ar    1  UNL1        0.0014
      7 C         -12.6613  -16.9644   22.6809 C.ar    1  UNL1        0.0000
      8 C         -11.8761  -18.0669   23.3274 C.ar    1  UNL1        0.0052
      9 C         -10.7003  -18.6673   22.6155 C.ar    1  UNL1        0.0902
     10 C          -9.9151  -19.7698   23.2619 C.3     1  UNL1        0.4198
     11 F          -9.1299  -20.8724   23.9084 F       1  UNL1       -0.1658
     12 F         -10.8671  -20.7806   22.6944 F       1  UNL1       -0.1658
     13 F          -9.0722  -19.0661   23.7820 F       1  UNL1       -0.1658
     14 N          -7.9579  -19.3659   19.8332 N.pl3   1  UNL1       -0.2135
     15 H          -8.0661  -19.7311   18.9253 H       1  UNL1        0.1738
     16 C          -6.6171  -19.4100   20.5045 C.ar    1  UNL1        0.0839
     17 C          -6.5099  -19.8372   21.9383 C.ar    1  UNL1        0.1146
     18 N          -5.1692  -19.8812   22.6095 N.ar    1  UNL1       -0.2410
     19 C          -3.9357  -19.4981   21.8468 C.ar    1  UNL1        0.1028
     20 C          -4.0429  -19.0709   20.4130 C.ar    1  UNL1        0.0918
     21 C          -5.3836  -19.0268   19.7418 C.ar    1  UNL1        0.0229
     22 C          -2.8094  -18.6877   19.6503 C.3     1  UNL1        0.4201
     23 F          -1.5759  -18.3045   18.8877 F       1  UNL1       -0.1658
     24 F          -1.9848  -19.5686   20.5414 F       1  UNL1       -0.1658
     25 F          -3.6340  -17.8067   18.7592 F       1  UNL1       -0.1658
@<TRIPOS>BOND
     1     1     2    2
     2     2     3    2
     3     2    14    1
     4    14    16    1
     5    16    17   ar
     6    17    18   ar
     7    18    19   ar
     8    19    20   ar
     9    20    22    1
    10    22    23    1
    11    22    24    1
    12    22    25    1
    13    20    21   ar
    14     2     4    1
    15     4     5   ar
    16     5     6   ar
    17     6     7   ar
    18     7     8   ar
    19     8     9   ar
    20     9    10    1
    21    10    11    1
    22    10    12    1
    23    10    13    1
    24    21    16   ar
    25     9     4   ar
    26    14    15    1
@<TRIPOS>MOLECULE
*****
 25 26 0 0 0
SMALL
GASTEIGER

@<TRIPOS>ATOM
      1 O          -8.1809  -17.4587   21.6354 O.2     1  UNL1       -0.1499
      2 S          -8.7722  -18.7317   21.1066 S.O2    1  UNL1        0.0736
      3 O          -9.1340  -19.7690   20.5875 O.2     1  UNL1       -0.1499
      4 C          -9.9234  -18.5923   22.0582 C.ar    1  UNL1        0.1290
      5 C          -9.8989  -19.3099   23.3752 C.ar    1  UNL1        0.0201
      6 C         -11.0500  -19.1704   24.3268 C.ar    1  UNL1        0.0014
      7 C         -12.2256  -18.3134   23.9613 C.ar    1  UNL1        0.0000
      8 C         -12.2500  -17.5959   22.6444 C.ar    1  UNL1        0.0052
      9 C         -11.0990  -17.7353   21.6928 C.ar    1  UNL1        0.0902
     10 C         -11.1234  -17.0177   20.3758 C.3     1  UNL1        0.4198
     11 F         -11.1479  -16.3001   19.0588 F       1  UNL1       -0.1658
     12 F         -10.6185  -15.7735   21.0443 F       1  UNL1       -0.1658
     13 F         -11.5318  -17.9471   19.7083 F       1  UNL1       -0.1658
     14 N          -7.6212  -18.8712   20.1550 N.pl3   1  UNL1       -0.2135
     15 H          -7.7787  -18.8386   19.1838 H       1  UNL1        0.1738
     16 C          -6.2300  -19.0605   20.6833 C.ar    1  UNL1        0.0839
     17 C          -6.0199  -19.6176   22.0600 C.ar    1  UNL1        0.1146
     18 N          -4.6288  -19.8068   22.5882 N.ar    1  UNL1       -0.2410
     19 C          -3.4479  -19.4389   21.7397 C.ar    1  UNL1        0.1028
     20 C          -3.6580  -18.8817   20.3630 C.ar    1  UNL1        0.0918
     21 C          -5.0491  -18.6925   19.8348 C.ar    1  UNL1        0.0229
     22 C          -2.4770  -18.5138   19.5145 C.3     1  UNL1        0.4201
     23 F          -1.2961  -18.1459   18.6659 F       1  UNL1       -0.1658
     24 F          -3.3635  -17.6710   18.6462 F       1  UNL1       -0.1658
     25 F          -1.5906  -19.3566   20.3827 F       1  UNL1       -0.1658
@<TRIPOS>BOND
     1     1     2    2
     2     2     3    2
     3     2    14    1
     4    14    16    1
     5    16    17   ar
     6    17    18   ar
     7    18    19   ar
     8    19    20   ar
     9    20    22    1
    10    22    23    1
    11    22    24    1
    12    22    25    1
    13    20    21   ar
    14     2     4    1
    15     4     5   ar
    16     5     6   ar
    17     6     7   ar
    18     7     8   ar
    19     8     9   ar
    20     9    10    1
    21    10    11    1
    22    10    12    1
    23    10    13    1
    24    21    16   ar
    25     9     4   ar
    26    14    15    1
@<TRIPOS>MOLECULE
*****
 25 26 0 0 0
SMALL
GASTEIGER

@<TRIPOS>ATOM
      1 O          -8.1264  -19.5718   22.7805 O.2     1  UNL1       -0.1499
      2 S          -7.8045  -18.7495   21.5680 S.O2    1  UNL1        0.0736
      3 O          -7.6693  -18.1369   20.5276 O.2     1  UNL1       -0.1499
      4 C          -6.5525  -18.2590   22.2330 C.ar    1  UNL1        0.1290
      5 C          -6.6118  -17.0959   23.1784 C.ar    1  UNL1        0.0201
      6 C          -5.3600  -16.6053   23.8434 C.ar    1  UNL1        0.0014
      7 C          -4.0489  -17.2778   23.5630 C.ar    1  UNL1        0.0000
      8 C          -3.9896  -18.4409   22.6176 C.ar    1  UNL1        0.0052
      9 C          -5.2414  -18.9315   21.9526 C.ar    1  UNL1        0.0902
     10 C          -5.1822  -20.0945   21.0073 C.3     1  UNL1        0.4198
     11 F          -5.1229  -21.2576   20.0619 F       1  UNL1       -0.1658
     12 F          -4.6595  -19.1918   19.9294 F       1  UNL1       -0.1658
     13 F          -5.5965  -20.9351   21.7805 F       1  UNL1       -0.1658
     14 N          -9.0563  -19.2400   20.9031 N.pl3   1  UNL1       -0.2135
     15 H          -9.0118  -19.9788   20.2539 H       1  UNL1        0.1738
     16 C         -10.3760  -18.6048   21.2271 C.ar    1  UNL1        0.0839
     17 C         -11.0765  -17.7652   20.2004 C.ar    1  UNL1        0.1146
     18 N         -12.3962  -17.1301   20.5245 N.ar    1  UNL1       -0.2410
     19 C         -13.0153  -17.3346   21.8753 C.ar    1  UNL1        0.1028
     20 C         -12.3148  -18.1742   22.9021 C.ar    1  UNL1        0.0918
     21 C         -10.9952  -18.8093   22.5780 C.ar    1  UNL1        0.0229
     22 C         -12.9340  -18.3787   24.2530 C.3     1  UNL1        0.4201
     23 F         -13.5531  -18.5832   25.6038 F       1  UNL1       -0.1658
     24 F         -14.0981  -17.5234   23.8489 F       1  UNL1       -0.1658
     25 F         -11.7699  -19.2340   24.6570 F       1  UNL1       -0.1658
@<TRIPOS>BOND
     1     1     2    2
     2     2     3    2
     3     2    14    1
     4    14    16    1
     5    16    17   ar
     6    17    18   ar
     7    18    19   ar
     8    19    20   ar
     9    20    22    1
    10    22    23    1
    11    22    24    1
    12    22    25    1
    13    20    21   ar
    14     2     4    1
    15     4     5   ar
    16     5     6   ar
    17     6     7   ar
    18     7     8   ar
    19     8     9   ar
    20     9    10    1
    21    10    11    1
    22    10    12    1
    23    10    13    1
    24    21    16   ar
    25     9     4   ar
    26    14    15    1
@<TRIPOS>MOLECULE
*****
 25 26 0 0 0
SMALL
GASTEIGER

@<TRIPOS>ATOM
      1 O          -5.2237  -14.6893   23.2401 O.2     1  UNL1       -0.1499
      2 S          -4.8588  -16.0031   23.8652 S.O2    1  UNL1        0.0736
      3 O          -4.4525  -17.0731   24.2728 O.2     1  UNL1       -0.1499
      4 C          -6.0015  -15.8631   24.8267 C.ar    1  UNL1        0.1290
      5 C          -5.7487  -15.3937   26.2288 C.ar    1  UNL1        0.0201
      6 C          -6.8913  -15.2537   27.1904 C.ar    1  UNL1        0.0014
      7 C          -8.2868  -15.5830   26.7499 C.ar    1  UNL1        0.0000
      8 C          -8.5397  -16.0523   25.3478 C.ar    1  UNL1        0.0052
      9 C          -7.3970  -16.1924   24.3863 C.ar    1  UNL1        0.0902
     10 C          -7.6499  -16.6617   22.9842 C.3     1  UNL1        0.4198
     11 F          -7.9027  -17.1310   21.5821 F       1  UNL1       -0.1658
     12 F          -7.9805  -15.2574   22.5737 F       1  UNL1       -0.1658
     13 F          -7.4090  -17.8370   23.1757 F       1  UNL1       -0.1658
     14 N          -3.7161  -16.1431   22.9036 N.pl3   1  UNL1       -0.2135
     15 H          -3.1799  -15.3548   22.6581 H       1  UNL1        0.1738
     16 C          -3.3902  -17.4844   22.3162 C.ar    1  UNL1        0.0839
     17 C          -1.9772  -17.9873   22.3332 C.ar    1  UNL1        0.1146
     18 N          -1.6514  -19.3285   21.7458 N.ar    1  UNL1       -0.2410
     19 C          -2.7387  -20.1667   21.1413 C.ar    1  UNL1        0.1028
     20 C          -4.1517  -19.6637   21.1243 C.ar    1  UNL1        0.0918
     21 C          -4.4775  -18.3225   21.7117 C.ar    1  UNL1        0.0229
     22 C          -5.2389  -20.5019   20.5198 C.3     1  UNL1        0.4201
     23 F          -6.3262  -21.3400   19.9154 F       1  UNL1       -0.1658
     24 F          -4.2556  -21.0713   19.5407 F       1  UNL1       -0.1658
     25 F          -6.2223  -19.9324   21.4990 F       1  UNL1       -0.1658
@<TRIPOS>BOND
     1     1     2    2
     2     2     3    2
     3     2    14    1
     4    14    16    1
     5    16    17   ar
     6    17    18   ar
     7    18    19   ar
     8    19    20   ar
     9    20    22    1
    10    22    23    1
    11    22    24    1
    12    22    25    1
    13    20    21   ar
    14     2     4    1
    15     4     5   ar
    16     5     6   ar
    17     6     7   ar
    18     7     8   ar
    19     8     9   ar
    20     9    10    1
    21    10    11    1
    22    10    12    1
    23    10    13    1
    24    21    16   ar
    25     9     4   ar
    26    14    15    1
@<TRIPOS>MOLECULE
*****
 25 26 0 0 0
SMALL
GASTEIGER

@<TRIPOS>ATOM
      1 O          -6.2407  -20.4461   22.1539 O.2     1  UNL1       -0.1499
      2 S          -6.3722  -19.1772   21.3650 S.O2    1  UNL1        0.0736
      3 O          -6.6084  -18.2033   20.6780 O.2     1  UNL1       -0.1499
      4 C          -5.0511  -18.7083   21.8988 C.ar    1  UNL1        0.1290
      5 C          -5.0007  -17.8523   23.1296 C.ar    1  UNL1        0.0201
      6 C          -3.6797  -17.3835   23.6635 C.ar    1  UNL1        0.0014
      7 C          -2.4091  -17.7705   22.9666 C.ar    1  UNL1        0.0000
      8 C          -2.4595  -18.6265   21.7358 C.ar    1  UNL1        0.0052
      9 C          -3.7805  -19.0953   21.2019 C.ar    1  UNL1        0.0902
     10 C          -3.8309  -19.9513   19.9712 C.3     1  UNL1        0.4198
     11 F          -3.8813  -20.8072   18.7404 F       1  UNL1       -0.1658
     12 F          -4.0171  -18.7257   19.1265 F       1  UNL1       -0.1658
     13 F          -3.6862  -21.0210   20.5287 F       1  UNL1       -0.1658
     14 N          -7.6932  -19.6460   20.8311 N.pl3   1  UNL1       -0.2135
     15 H          -7.7265  -20.2060   20.0221 H       1  UNL1        0.1738
     16 C          -8.9637  -19.2615   21.5298 C.ar    1  UNL1        0.0839
     17 C          -9.2900  -19.8500   22.8704 C.ar    1  UNL1        0.1146
     18 N         -10.5604  -19.4655   23.5691 N.ar    1  UNL1       -0.2410
     19 C         -11.5045  -18.4925   22.9272 C.ar    1  UNL1        0.1028
     20 C         -11.1782  -17.9040   21.5866 C.ar    1  UNL1        0.0918
     21 C          -9.9078  -18.2885   20.8879 C.ar    1  UNL1        0.0229
     22 C         -12.1223  -16.9311   20.9447 C.3     1  UNL1        0.4201
     23 F         -13.0664  -15.9581   20.3028 F       1  UNL1       -0.1658
     24 F         -10.9652  -16.0490   20.5798 F       1  UNL1       -0.1658
     25 F         -13.2794  -17.8131   21.3096 F       1  UNL1       -0.1658
@<TRIPOS>BOND
     1     1     2    2
     2     2     3    2
     3     2    14    1
     4    14    16    1
     5    16    17   ar
     6    17    18   ar
     7    18    19   ar
     8    19    20   ar
     9    20    22    1
    10    22    23    1
    11    22    24    1
    12    22    25    1
    13    20    21   ar
    14     2     4    1
    15     4     5   ar
    16     5     6   ar
    17     6     7   ar
    18     7     8   ar
    19     8     9   ar
    20     9    10    1
    21    10    11    1
    22    10    12    1
    23    10    13    1
    24    21    16   ar
    25     9     4   ar
    26    14    15    1
@<TRIPOS>MOLECULE
*****
 25 26 0 0 0
SMALL
GASTEIGER

@<TRIPOS>ATOM
      1 O          -7.5354  -15.7474   21.9629 O.2     1  UNL1       -0.1499
      2 S          -7.3676  -17.1026   22.5835 S.O2    1  UNL1        0.0736
      3 O          -7.2393  -18.2544   22.9482 O.2     1  UNL1       -0.1499
      4 C          -7.3007  -16.4719   23.9428 C.ar    1  UNL1        0.1290
      5 C          -8.5520  -16.2982   24.7515 C.ar    1  UNL1        0.0201
      6 C          -8.4851  -15.6675   26.1107 C.ar    1  UNL1        0.0014
      7 C          -7.1669  -15.2105   26.6614 C.ar    1  UNL1        0.0000
      8 C          -5.9155  -15.3843   25.8528 C.ar    1  UNL1        0.0052
      9 C          -5.9824  -16.0149   24.4935 C.ar    1  UNL1        0.0902
     10 C          -4.7310  -16.1886   23.6849 C.3     1  UNL1        0.4198
     11 F          -3.4796  -16.3624   22.8763 F       1  UNL1       -0.1658
     12 F          -4.8552  -14.7782   23.1897 F       1  UNL1       -0.1658
     13 F          -4.5076  -17.3397   24.0031 F       1  UNL1       -0.1658
     14 N          -7.4345  -17.7333   21.2242 N.pl3   1  UNL1       -0.2135
     15 H          -8.1286  -17.4526   20.5849 H       1  UNL1        0.1738
     16 C          -6.4440  -18.7919   20.8389 C.ar    1  UNL1        0.0839
     17 C          -6.9171  -20.1749   20.5024 C.ar    1  UNL1        0.1146
     18 N          -5.9266  -21.2334   20.1172 N.ar    1  UNL1       -0.2410
     19 C          -4.4629  -20.9088   20.0684 C.ar    1  UNL1        0.1028
     20 C          -3.9898  -19.5257   20.4049 C.ar    1  UNL1        0.0918
     21 C          -4.9803  -18.4673   20.7902 C.ar    1  UNL1        0.0229
     22 C          -2.5262  -19.2011   20.3562 C.3     1  UNL1        0.4201
     23 F          -1.0625  -18.8765   20.3074 F       1  UNL1       -0.1658
     24 F          -2.6331  -18.9400   18.8830 F       1  UNL1       -0.1658
     25 F          -2.4192  -19.4623   21.8294 F       1  UNL1       -0.1658
@<TRIPOS>BOND
     1     1     2    2
     2     2     3    2
     3     2    14    1
     4    14    16    1
     5    16    17   ar
     6    17    18   ar
     7    18    19   ar
     8    19    20   ar
     9    20    22    1
    10    22    23    1
    11    22    24    1
    12    22    25    1
    13    20    21   ar
    14     2     4    1
    15     4     5   ar
    16     5     6   ar
    17     6     7   ar
    18     7     8   ar
    19     8     9   ar
    20     9    10    1
    21    10    11    1
    22    10    12    1
    23    10    13    1
    24    21    16   ar
    25     9     4   ar
    26    14    15    1
