@<TRIPOS>MOLECULE
*****
 32 35 0 0 0
SMALL
GASTEIGER

@<TRIPOS>ATOM
      1 C           5.7572   -2.4086   18.3921 C.ar    1  UNL1        0.1424
      2 C           7.0837   -1.7711   18.6819 C.ar    1  UNL1        0.0339
      3 C           7.8376   -2.1401   19.9251 C.ar    1  UNL1       -0.0037
      4 C           7.2650   -3.1467   20.8785 C.ar    1  UNL1        0.0515
      5 C           5.9385   -3.7842   20.5887 C.ar    1  UNL1        0.0215
      6 C           5.1846   -3.4152   19.3455 C.ar    1  UNL1        0.1065
      7 N           8.2304   -3.3103   22.0148 N.am    1  UNL1       -0.2430
      8 C           8.0569   -4.2197   23.1950 C.2     1  UNL1        0.3114
      9 O           6.8277   -5.0715   23.3113 O.2     1  UNL1       -0.2519
     10 N           9.1127   -4.2773   24.2590 N.am    1  UNL1       -0.2678
     11 C           9.3996   -2.4048   21.7637 C.3     1  UNL1        0.1045
     12 C           9.1568   -1.6816   20.4722 C.3     1  UNL1        0.0496
     13 H           9.9195   -3.7183   24.1826 H       1  UNL1        0.1564
     14 C           8.9394   -5.1867   25.4392 C.ar    1  UNL1        0.0538
     15 C           9.3166   -6.6346   25.3322 C.ar    1  UNL1        0.0443
     16 C           9.1432   -7.5439   26.5125 C.ar    1  UNL1        0.1414
     17 F           9.5204   -8.9917   26.4057 F       1  UNL1       -0.2041
     18 C           8.5926   -7.0053   27.7997 C.ar    1  UNL1        0.0298
     19 C           8.2154   -5.5575   27.9067 C.ar    1  UNL1        0.0050
     20 C           8.3888   -4.6482   26.7264 C.ar    1  UNL1        0.0149
     21 C           7.6649   -5.0190   29.1939 C.ar    1  UNL1        0.0193
     22 C           7.2085   -3.5924   29.2759 C.ar    1  UNL1        0.0031
     23 C           6.6580   -3.0539   30.5630 C.ar    1  UNL1        0.0207
     24 C           6.5637   -3.9419   31.7682 C.ar    1  UNL1        0.0989
     25 N           7.0201   -5.3685   31.6863 N.ar    1  UNL1       -0.2423
     26 C           7.5706   -5.9070   30.3991 C.ar    1  UNL1        0.0988
     27 C           3.8582   -4.0528   19.0557 C.3     1  UNL1        0.4214
     28 F           2.5317   -4.6903   18.7659 F       1  UNL1       -0.1657
     29 F           4.5507   -5.1548   18.3101 F       1  UNL1       -0.1657
     30 F           3.1656   -2.9508   19.8013 F       1  UNL1       -0.1657
     31 C           4.0263   -0.9017   17.1742 C.3     1  UNL1        0.2525
     32 O           5.0033   -2.0396   17.1489 O.3     1  UNL1       -0.4715
@<TRIPOS>BOND
     1    31    32    1
     2    32     1    1
     3     1     2   ar
     4     2     3   ar
     5     3     4   ar
     6     4     5   ar
     7     5     6   ar
     8     6    27    1
     9    27    28    1
    10    27    29    1
    11    27    30    1
    12     4     7    1
    13     7     8   am
    14     8     9    2
    15     8    10   am
    16    10    14    1
    17    14    15   ar
    18    15    16   ar
    19    16    17    1
    20    16    18   ar
    21    18    19   ar
    22    19    21    1
    23    21    22   ar
    24    22    23   ar
    25    23    24   ar
    26    24    25   ar
    27    25    26   ar
    28    19    20   ar
    29     7    11    1
    30    11    12    1
    31     6     1   ar
    32    20    14   ar
    33    12     3    1
    34    26    21   ar
    35    10    13    1
@<TRIPOS>MOLECULE
*****
 32 35 0 0 0
SMALL
GASTEIGER

@<TRIPOS>ATOM
      1 C           4.6329   -3.1368   21.8354 C.ar    1  UNL1        0.1424
      2 C           4.2990   -2.3058   23.0388 C.ar    1  UNL1        0.0339
      3 C           3.3461   -1.1541   22.9140 C.ar    1  UNL1       -0.0037
      4 C           2.7272   -0.8333   21.5858 C.ar    1  UNL1        0.0515
      5 C           3.0611   -1.6642   20.3825 C.ar    1  UNL1        0.0215
      6 C           4.0140   -2.8159   20.5073 C.ar    1  UNL1        0.1065
      7 N           1.8294    0.3546   21.7676 N.am    1  UNL1       -0.2430
      8 C           1.0112    1.0134   20.6969 C.2     1  UNL1        0.3114
      9 O           1.0484    0.4858   19.2932 O.2     1  UNL1       -0.2519
     10 N           0.1559    2.1997   21.0298 N.am    1  UNL1       -0.2678
     11 C           1.8934    0.7679   23.2081 C.3     1  UNL1        0.1045
     12 C           2.8308   -0.1645   23.9166 C.3     1  UNL1        0.0496
     13 H           0.1315    2.5460   21.9511 H       1  UNL1        0.1564
     14 C          -0.6624    2.8586   19.9591 C.ar    1  UNL1        0.0538
     15 C          -0.0357    3.2006   18.6399 C.ar    1  UNL1        0.0443
     16 C          -0.8540    3.8595   17.5692 C.ar    1  UNL1        0.1414
     17 F          -0.2274    4.2015   16.2500 F       1  UNL1       -0.2041
     18 C          -2.2989    4.1764   17.8178 C.ar    1  UNL1        0.0298
     19 C          -2.9256    3.8344   19.1370 C.ar    1  UNL1        0.0050
     20 C          -2.1073    3.1755   20.2076 C.ar    1  UNL1        0.0149
     21 C          -4.3705    4.1513   19.3856 C.ar    1  UNL1        0.0193
     22 C          -5.4329    3.5295   18.5284 C.ar    1  UNL1        0.0031
     23 C          -6.8778    3.8464   18.7770 C.ar    1  UNL1        0.0207
     24 C          -7.2603    4.7850   19.8827 C.ar    1  UNL1        0.0989
     25 N          -6.1979    5.4068   20.7399 N.ar    1  UNL1       -0.2423
     26 C          -4.7530    5.0899   20.4913 C.ar    1  UNL1        0.0988
     27 C           4.3479   -3.6468   19.3039 C.3     1  UNL1        0.4214
     28 F           4.6819   -4.4777   18.1006 F       1  UNL1       -0.1657
     29 F           3.0519   -4.3867   19.4552 F       1  UNL1       -0.1657
     30 F           5.6440   -2.9070   19.1527 F       1  UNL1       -0.1657
     31 C           7.0614   -4.0347   22.0499 C.3     1  UNL1        0.2525
     32 O           5.5858   -4.2885   21.9603 O.3     1  UNL1       -0.4715
@<TRIPOS>BOND
     1    31    32    1
     2    32     1    1
     3     1     2   ar
     4     2     3   ar
     5     3     4   ar
     6     4     5   ar
     7     5     6   ar
     8     6    27    1
     9    27    28    1
    10    27    29    1
    11    27    30    1
    12     4     7    1
    13     7     8   am
    14     8     9    2
    15     8    10   am
    16    10    14    1
    17    14    15   ar
    18    15    16   ar
    19    16    17    1
    20    16    18   ar
    21    18    19   ar
    22    19    21    1
    23    21    22   ar
    24    22    23   ar
    25    23    24   ar
    26    24    25   ar
    27    25    26   ar
    28    19    20   ar
    29     7    11    1
    30    11    12    1
    31     6     1   ar
    32    20    14   ar
    33    12     3    1
    34    26    21   ar
    35    10    13    1
@<TRIPOS>MOLECULE
*****
 32 35 0 0 0
SMALL
GASTEIGER

@<TRIPOS>ATOM
      1 C          -6.3882    4.1609   22.1929 C.ar    1  UNL1        0.1424
      2 C          -6.5616    4.2981   20.7092 C.ar    1  UNL1        0.0339
      3 C          -5.3815    4.1346   19.7979 C.ar    1  UNL1       -0.0037
      4 C          -4.0279    3.8340   20.3701 C.ar    1  UNL1        0.0515
      5 C          -3.8544    3.6968   21.8537 C.ar    1  UNL1        0.0215
      6 C          -5.0346    3.8602   22.7651 C.ar    1  UNL1        0.1065
      7 N          -3.0569    3.7266   19.2318 N.am    1  UNL1       -0.2430
      8 C          -1.5900    3.4360   19.3488 C.2     1  UNL1        0.3114
      9 O          -0.9730    3.2227   20.6993 O.2     1  UNL1       -0.2519
     10 N          -0.7400    3.3586   18.1153 N.am    1  UNL1       -0.2678
     11 C          -3.8103    3.9610   17.9561 C.3     1  UNL1        0.1045
     12 C          -5.2470    4.2131   18.3060 C.3     1  UNL1        0.0496
     13 H          -1.1450    3.4986   17.2289 H       1  UNL1        0.1564
     14 C           0.7269    3.0680   18.2321 C.ar    1  UNL1        0.0538
     15 C           1.7145    4.1964   18.2688 C.ar    1  UNL1        0.0443
     16 C           3.1814    3.9057   18.3856 C.ar    1  UNL1        0.1414
     17 F           4.1690    5.0340   18.4223 F       1  UNL1       -0.2041
     18 C           3.6607    2.4866   18.4659 C.ar    1  UNL1        0.0298
     19 C           2.6731    1.3582   18.4292 C.ar    1  UNL1        0.0050
     20 C           1.2062    1.6489   18.3124 C.ar    1  UNL1        0.0149
     21 C           3.1524   -0.0609   18.5095 C.ar    1  UNL1        0.0193
     22 C           2.7241   -0.9337   19.6518 C.ar    1  UNL1        0.0031
     23 C           3.2034   -2.3528   19.7320 C.ar    1  UNL1        0.0207
     24 C           4.1110   -2.8991   18.6700 C.ar    1  UNL1        0.0989
     25 N           4.5392   -2.0263   17.5277 N.ar    1  UNL1       -0.2423
     26 C           4.0600   -0.6072   17.4475 C.ar    1  UNL1        0.0988
     27 C          -4.8611    3.7230   24.2487 C.3     1  UNL1        0.4214
     28 F          -4.6876    3.5859   25.7322 F       1  UNL1       -0.1657
     29 F          -4.6333    5.2015   24.3588 F       1  UNL1       -0.1657
     30 F          -5.0889    2.2446   24.1386 F       1  UNL1       -0.1657
     31 C          -7.9070    5.6769   23.6574 C.3     1  UNL1        0.2525
     32 O          -7.5683    4.3244   23.1042 O.3     1  UNL1       -0.4715
@<TRIPOS>BOND
     1    31    32    1
     2    32     1    1
     3     1     2   ar
     4     2     3   ar
     5     3     4   ar
     6     4     5   ar
     7     5     6   ar
     8     6    27    1
     9    27    28    1
    10    27    29    1
    11    27    30    1
    12     4     7    1
    13     7     8   am
    14     8     9    2
    15     8    10   am
    16    10    14    1
    17    14    15   ar
    18    15    16   ar
    19    16    17    1
    20    16    18   ar
    21    18    19   ar
    22    19    21    1
    23    21    22   ar
    24    22    23   ar
    25    23    24   ar
    26    24    25   ar
    27    25    26   ar
    28    19    20   ar
    29     7    11    1
    30    11    12    1
    31     6     1   ar
    32    20    14   ar
    33    12     3    1
    34    26    21   ar
    35    10    13    1
@<TRIPOS>MOLECULE
*****
 32 35 0 0 0
SMALL
GASTEIGER

@<TRIPOS>ATOM
      1 C           0.5944    2.1551   29.1843 C.ar    1  UNL1        0.1424
      2 C           1.4875    3.2944   28.7912 C.ar    1  UNL1        0.0339
      3 C           1.8949    3.4679   27.3581 C.ar    1  UNL1       -0.0037
      4 C           1.4092    2.5023   26.3180 C.ar    1  UNL1        0.0515
      5 C           0.5162    1.3630   26.7111 C.ar    1  UNL1        0.0215
      6 C           0.1087    1.1894   28.1443 C.ar    1  UNL1        0.1065
      7 N           1.9732    2.9248   24.9939 N.am    1  UNL1       -0.2430
      8 C           1.7434    2.2406   23.6789 C.2     1  UNL1        0.3114
      9 O           0.8801    1.0158   23.6116 O.2     1  UNL1       -0.2519
     10 N           2.3768    2.7812   22.4314 N.am    1  UNL1       -0.2678
     11 C           2.8075    4.1515   25.2155 C.3     1  UNL1        0.1045
     12 C           2.7590    4.4872   26.6766 C.3     1  UNL1        0.0496
     13 H           2.9434    3.5850   22.4756 H       1  UNL1        0.1564
     14 C           2.1470    2.0970   21.1164 C.ar    1  UNL1        0.0538
     15 C           1.1398    2.6472   20.1506 C.ar    1  UNL1        0.0443
     16 C           0.9100    1.9630   18.8357 C.ar    1  UNL1        0.1414
     17 F          -0.0972    2.5132   17.8698 F       1  UNL1       -0.2041
     18 C           1.6875    0.7287   18.4865 C.ar    1  UNL1        0.0298
     19 C           2.6947    0.1784   19.4523 C.ar    1  UNL1        0.0050
     20 C           2.9244    0.8626   20.7672 C.ar    1  UNL1        0.0149
     21 C           3.4721   -1.0559   19.1032 C.ar    1  UNL1        0.0193
     22 C           3.1738   -2.3516   19.7975 C.ar    1  UNL1        0.0031
     23 C           3.9512   -3.5860   19.4484 C.ar    1  UNL1        0.0207
     24 C           5.0270   -3.5247   18.4049 C.ar    1  UNL1        0.0989
     25 N           5.3254   -2.2289   17.7105 N.ar    1  UNL1       -0.2423
     26 C           4.5479   -0.9946   18.0597 C.ar    1  UNL1        0.0988
     27 C          -0.7843    0.0502   28.5374 C.3     1  UNL1        0.4214
     28 F          -1.6774   -1.0890   28.9305 F       1  UNL1       -0.1657
     29 F           0.4162   -0.8334   28.7041 F       1  UNL1       -0.1657
     30 F          -1.9849    0.9338   28.3707 F       1  UNL1       -0.1657
     31 C           1.2144    2.0772   31.7061 C.3     1  UNL1        0.2525
     32 O           0.1870    1.9815   30.6174 O.3     1  UNL1       -0.4715
@<TRIPOS>BOND
     1    31    32    1
     2    32     1    1
     3     1     2   ar
     4     2     3   ar
     5     3     4   ar
     6     4     5   ar
     7     5     6   ar
     8     6    27    1
     9    27    28    1
    10    27    29    1
    11    27    30    1
    12     4     7    1
    13     7     8   am
    14     8     9    2
    15     8    10   am
    16    10    14    1
    17    14    15   ar
    18    15    16   ar
    19    16    17    1
    20    16    18   ar
    21    18    19   ar
    22    19    21    1
    23    21    22   ar
    24    22    23   ar
    25    23    24   ar
    26    24    25   ar
    27    25    26   ar
    28    19    20   ar
    29     7    11    1
    30    11    12    1
    31     6     1   ar
    32    20    14   ar
    33    12     3    1
    34    26    21   ar
    35    10    13    1
@<TRIPOS>MOLECULE
*****
 32 35 0 0 0
SMALL
GASTEIGER

@<TRIPOS>ATOM
      1 C           4.9962   -1.0625   18.8472 C.ar    1  UNL1        0.1424
      2 C           5.1598    0.3548   18.3840 C.ar    1  UNL1        0.0339
      3 C           4.0471    1.3412   18.5804 C.ar    1  UNL1       -0.0037
      4 C           2.7706    0.9105   19.2401 C.ar    1  UNL1        0.0515
      5 C           2.6070   -0.5068   19.7033 C.ar    1  UNL1        0.0215
      6 C           3.7197   -1.4933   19.5069 C.ar    1  UNL1        0.1065
      7 N           1.8551    2.0973   19.2975 N.am    1  UNL1       -0.2430
      8 C           0.4718    2.1164   19.8773 C.2     1  UNL1        0.3114
      9 O          -0.1101    0.8677   20.4706 O.2     1  UNL1       -0.2519
     10 N          -0.3296    3.3843   19.8638 N.am    1  UNL1       -0.2678
     11 C           2.5656    3.2615   18.6732 C.3     1  UNL1        0.1045
     12 C           3.9203    2.7942   18.2301 C.3     1  UNL1        0.0496
     13 H           0.0523    4.2039   19.4744 H       1  UNL1        0.1564
     14 C          -1.7129    3.4035   20.4436 C.ar    1  UNL1        0.0538
     15 C          -2.9063    3.3062   19.5400 C.ar    1  UNL1        0.0443
     16 C          -4.2895    3.3254   20.1199 C.ar    1  UNL1        0.1414
     17 F          -5.4829    3.2281   19.2164 F       1  UNL1       -0.2041
     18 C          -4.4794    3.4420   21.6032 C.ar    1  UNL1        0.0298
     19 C          -3.2860    3.5394   22.5068 C.ar    1  UNL1        0.0050
     20 C          -1.9028    3.5202   21.9269 C.ar    1  UNL1        0.0149
     21 C          -3.4759    3.6560   23.9901 C.ar    1  UNL1        0.0193
     22 C          -2.2895    3.5900   24.9056 C.ar    1  UNL1        0.0031
     23 C          -2.4793    3.7066   26.3890 C.ar    1  UNL1        0.0207
     24 C          -3.8556    3.8893   26.9568 C.ar    1  UNL1        0.0989
     25 N          -5.0420    3.9552   26.0414 N.ar    1  UNL1       -0.2423
     26 C          -4.8522    3.8386   24.5580 C.ar    1  UNL1        0.0988
     27 C           3.5561   -2.9105   19.9701 C.3     1  UNL1        0.4214
     28 F           3.3924   -4.3278   20.4334 F       1  UNL1       -0.1657
     29 F           3.8357   -2.4820   21.3801 F       1  UNL1       -0.1657
     30 F           3.2764   -3.3391   18.5602 F       1  UNL1       -0.1657
     31 C           7.1704   -2.2009   19.6996 C.3     1  UNL1        0.2525
     32 O           6.1089   -2.0490   18.6508 O.3     1  UNL1       -0.4715
@<TRIPOS>BOND
     1    31    32    1
     2    32     1    1
     3     1     2   ar
     4     2     3   ar
     5     3     4   ar
     6     4     5   ar
     7     5     6   ar
     8     6    27    1
     9    27    28    1
    10    27    29    1
    11    27    30    1
    12     4     7    1
    13     7     8   am
    14     8     9    2
    15     8    10   am
    16    10    14    1
    17    14    15   ar
    18    15    16   ar
    19    16    17    1
    20    16    18   ar
    21    18    19   ar
    22    19    21    1
    23    21    22   ar
    24    22    23   ar
    25    23    24   ar
    26    24    25   ar
    27    25    26   ar
    28    19    20   ar
    29     7    11    1
    30    11    12    1
    31     6     1   ar
    32    20    14   ar
    33    12     3    1
    34    26    21   ar
    35    10    13    1
@<TRIPOS>MOLECULE
*****
 32 35 0 0 0
SMALL
GASTEIGER

@<TRIPOS>ATOM
      1 C          -3.5259    3.7718   25.4226 C.ar    1  UNL1        0.1424
      2 C          -4.2602    3.8189   24.1154 C.ar    1  UNL1        0.0339
      3 C          -3.5259    3.5614   22.8330 C.ar    1  UNL1       -0.0037
      4 C          -2.0573    3.2569   22.8577 C.ar    1  UNL1        0.0515
      5 C          -1.3231    3.2098   24.1648 C.ar    1  UNL1        0.0215
      6 C          -2.0573    3.4673   25.4473 C.ar    1  UNL1        0.1065
      7 N          -1.6036    3.0473   21.4435 N.am    1  UNL1       -0.2430
      8 C          -0.2069    2.7201   21.0050 C.2     1  UNL1        0.3114
      9 O           0.8844    2.5750   22.0238 O.2     1  UNL1       -0.2519
     10 N           0.0984    2.5379   19.5477 N.am    1  UNL1       -0.2678
     11 C          -2.7917    3.2222   20.5446 C.3     1  UNL1        0.1045
     12 C          -3.9797    3.5400   21.4034 C.3     1  UNL1        0.0496
     13 H          -0.6179    2.6331   18.8791 H       1  UNL1        0.1564
     14 C           1.4951    2.2107   19.1092 C.ar    1  UNL1        0.0538
     15 C           2.4166    3.3063   18.6613 C.ar    1  UNL1        0.0443
     16 C           3.8133    2.9790   18.2228 C.ar    1  UNL1        0.1414
     17 F           4.7348    4.0745   17.7749 F       1  UNL1       -0.2041
     18 C           4.2883    1.5563   18.2321 C.ar    1  UNL1        0.0298
     19 C           3.3668    0.4607   18.6800 C.ar    1  UNL1        0.0050
     20 C           1.9702    0.7880   19.1185 C.ar    1  UNL1        0.0149
     21 C           3.8419   -0.9620   18.6893 C.ar    1  UNL1        0.0193
     22 C           3.1430   -1.9805   19.5404 C.ar    1  UNL1        0.0031
     23 C           3.6181   -3.4033   19.5497 C.ar    1  UNL1        0.0207
     24 C           4.7920   -3.8075   18.7080 C.ar    1  UNL1        0.0989
     25 N           5.4909   -2.7890   17.8570 N.ar    1  UNL1       -0.2423
     26 C           5.0158   -1.3663   17.8476 C.ar    1  UNL1        0.0988
     27 C          -1.3230    3.4202   26.7544 C.3     1  UNL1        0.4214
     28 F          -0.5887    3.3731   28.0615 F       1  UNL1       -0.1657
     29 F          -1.3071    4.9194   26.7994 F       1  UNL1       -0.1657
     30 F          -1.3389    1.9210   26.7093 F       1  UNL1       -0.1657
     31 C          -4.6755    5.4252   27.0641 C.3     1  UNL1        0.2525
     32 O          -4.2601    4.0293   26.7049 O.3     1  UNL1       -0.4715
@<TRIPOS>BOND
     1    31    32    1
     2    32     1    1
     3     1     2   ar
     4     2     3   ar
     5     3     4   ar
     6     4     5   ar
     7     5     6   ar
     8     6    27    1
     9    27    28    1
    10    27    29    1
    11    27    30    1
    12     4     7    1
    13     7     8   am
    14     8     9    2
    15     8    10   am
    16    10    14    1
    17    14    15   ar
    18    15    16   ar
    19    16    17    1
    20    16    18   ar
    21    18    19   ar
    22    19    21    1
    23    21    22   ar
    24    22    23   ar
    25    23    24   ar
    26    24    25   ar
    27    25    26   ar
    28    19    20   ar
    29     7    11    1
    30    11    12    1
    31     6     1   ar
    32    20    14   ar
    33    12     3    1
    34    26    21   ar
    35    10    13    1
@<TRIPOS>MOLECULE
*****
 32 35 0 0 0
SMALL
GASTEIGER

@<TRIPOS>ATOM
      1 C           4.2345   -1.2073   18.3321 C.ar    1  UNL1        0.1424
      2 C           4.0656    0.1859   17.8025 C.ar    1  UNL1        0.0339
      3 C           3.1706    1.1559   18.5153 C.ar    1  UNL1       -0.0037
      4 C           2.4444    0.7326   19.7577 C.ar    1  UNL1        0.0515
      5 C           2.6132   -0.6605   20.2872 C.ar    1  UNL1        0.0215
      6 C           3.5083   -1.6306   19.5744 C.ar    1  UNL1        0.1065
      7 N           1.6358    1.8995   20.2421 N.am    1  UNL1       -0.2430
      8 C           0.7554    1.9185   21.4564 C.2     1  UNL1        0.3114
      9 O           0.6267    0.6910   22.3089 O.2     1  UNL1       -0.2519
     10 N           0.0036    3.1650   21.8182 N.am    1  UNL1       -0.2678
     11 C           1.8623    3.0438   19.2992 C.3     1  UNL1        0.1045
     12 C           2.8108    2.5843   18.2320 C.3     1  UNL1        0.0496
     13 H           0.0880    3.9707   21.2587 H       1  UNL1        0.1564
     14 C          -0.8769    3.1842   23.0325 C.ar    1  UNL1        0.0538
     15 C          -0.3126    2.8209   24.3739 C.ar    1  UNL1        0.0443
     16 C          -1.1931    2.8401   25.5881 C.ar    1  UNL1        0.1414
     17 F          -0.6288    2.4768   26.9296 F       1  UNL1       -0.2041
     18 C          -2.6379    3.2226   25.4609 C.ar    1  UNL1        0.0298
     19 C          -3.2023    3.5859   24.1194 C.ar    1  UNL1        0.0050
     20 C          -2.3217    3.5667   22.9052 C.ar    1  UNL1        0.0149
     21 C          -4.6471    3.9684   23.9922 C.ar    1  UNL1        0.0193
     22 C          -5.4086    3.6191   22.7479 C.ar    1  UNL1        0.0031
     23 C          -6.8534    4.0016   22.6206 C.ar    1  UNL1        0.0207
     24 C          -7.5367    4.7333   23.7376 C.ar    1  UNL1        0.0989
     25 N          -6.7752    5.0826   24.9818 N.ar    1  UNL1       -0.2423
     26 C          -5.3304    4.7001   25.1091 C.ar    1  UNL1        0.0988
     27 C           3.6772   -3.0237   20.1040 C.3     1  UNL1        0.4214
     28 F           3.8460   -4.4169   20.6336 F       1  UNL1       -0.1657
     29 F           4.5684   -2.5022   21.1919 F       1  UNL1       -0.1657
     30 F           2.7859   -3.5453   19.0162 F       1  UNL1       -0.1657
     31 C           6.5739   -2.2900   18.0080 C.3     1  UNL1        0.2525
     32 O           5.1295   -2.1773   17.6193 O.3     1  UNL1       -0.4715
@<TRIPOS>BOND
     1    31    32    1
     2    32     1    1
     3     1     2   ar
     4     2     3   ar
     5     3     4   ar
     6     4     5   ar
     7     5     6   ar
     8     6    27    1
     9    27    28    1
    10    27    29    1
    11    27    30    1
    12     4     7    1
    13     7     8   am
    14     8     9    2
    15     8    10   am
    16    10    14    1
    17    14    15   ar
    18    15    16   ar
    19    16    17    1
    20    16    18   ar
    21    18    19   ar
    22    19    21    1
    23    21    22   ar
    24    22    23   ar
    25    23    24   ar
    26    24    25   ar
    27    25    26   ar
    28    19    20   ar
    29     7    11    1
    30    11    12    1
    31     6     1   ar
    32    20    14   ar
    33    12     3    1
    34    26    21   ar
    35    10    13    1
@<TRIPOS>MOLECULE
*****
 32 35 0 0 0
SMALL
GASTEIGER

@<TRIPOS>ATOM
      1 C         -11.4279   -6.5109   18.2572 C.ar    1  UNL1        0.1424
      2 C         -12.7195   -6.9658   18.8695 C.ar    1  UNL1        0.0339
      3 C         -13.7838   -5.9639   19.2063 C.ar    1  UNL1       -0.0037
      4 C         -13.5565   -4.5070   18.9309 C.ar    1  UNL1        0.0515
      5 C         -12.2649   -4.0521   18.3186 C.ar    1  UNL1        0.0215
      6 C         -11.2006   -5.0540   17.9817 C.ar    1  UNL1        0.1065
      7 N         -14.7798   -3.7565   19.3669 N.am    1  UNL1       -0.2430
      8 C         -14.9839   -2.2733   19.2742 C.2     1  UNL1        0.3114
      9 O         -13.9049   -1.4020   18.7028 O.2     1  UNL1       -0.2519
     10 N         -16.2671   -1.6615   19.7529 N.am    1  UNL1       -0.2678
     11 C         -15.7632   -4.7494   19.9118 C.3     1  UNL1        0.1045
     12 C         -15.1476   -6.1137   19.8126 C.3     1  UNL1        0.0496
     13 H         -16.9753   -2.2334   20.1279 H       1  UNL1        0.1564
     14 C         -16.4713   -0.1783   19.6603 C.ar    1  UNL1        0.0538
     15 C         -16.4387    0.5012   18.3235 C.ar    1  UNL1        0.0443
     16 C         -16.6430    1.9844   18.2309 C.ar    1  UNL1        0.1414
     17 F         -16.6104    2.6640   16.8941 F       1  UNL1       -0.2041
     18 C         -16.8797    2.7879   19.4752 C.ar    1  UNL1        0.0298
     19 C         -16.9122    2.1084   20.8120 C.ar    1  UNL1        0.0050
     20 C         -16.7080    0.6253   20.9046 C.ar    1  UNL1        0.0149
     21 C         -17.1489    2.9120   22.0563 C.ar    1  UNL1        0.0193
     22 C         -16.2211    4.0360   22.4111 C.ar    1  UNL1        0.0031
     23 C         -16.4578    4.8395   23.6554 C.ar    1  UNL1        0.0207
     24 C         -17.6224    4.5191   24.5448 C.ar    1  UNL1        0.0989
     25 N         -18.5502    3.3952   24.1900 N.ar    1  UNL1       -0.2423
     26 C         -18.3135    2.5916   22.9458 C.ar    1  UNL1        0.0988
     27 C          -9.9091   -4.5991   17.3695 C.3     1  UNL1        0.4214
     28 F          -8.6175   -4.1442   16.7572 F       1  UNL1       -0.1657
     29 F          -9.3942   -4.2307   18.7293 F       1  UNL1       -0.1657
     30 F         -10.4240   -4.9675   16.0097 F       1  UNL1       -0.1657
     31 C          -9.3029   -7.8472   18.9269 C.3     1  UNL1        0.2525
     32 O         -10.3637   -7.5128   17.9204 O.3     1  UNL1       -0.4715
@<TRIPOS>BOND
     1    31    32    1
     2    32     1    1
     3     1     2   ar
     4     2     3   ar
     5     3     4   ar
     6     4     5   ar
     7     5     6   ar
     8     6    27    1
     9    27    28    1
    10    27    29    1
    11    27    30    1
    12     4     7    1
    13     7     8   am
    14     8     9    2
    15     8    10   am
    16    10    14    1
    17    14    15   ar
    18    15    16   ar
    19    16    17    1
    20    16    18   ar
    21    18    19   ar
    22    19    21    1
    23    21    22   ar
    24    22    23   ar
    25    23    24   ar
    26    24    25   ar
    27    25    26   ar
    28    19    20   ar
    29     7    11    1
    30    11    12    1
    31     6     1   ar
    32    20    14   ar
    33    12     3    1
    34    26    21   ar
    35    10    13    1
@<TRIPOS>MOLECULE
*****
 32 35 0 0 0
SMALL
GASTEIGER

@<TRIPOS>ATOM
      1 C           5.9230   -3.0571   20.2741 C.ar    1  UNL1        0.1424
      2 C           6.5929   -1.7149   20.2712 C.ar    1  UNL1        0.0339
      3 C           5.7762   -0.4695   20.0931 C.ar    1  UNL1       -0.0037
      4 C           4.2897   -0.5661   19.9178 C.ar    1  UNL1        0.0515
      5 C           3.6198   -1.9081   19.9206 C.ar    1  UNL1        0.0215
      6 C           4.4365   -3.1537   20.0988 C.ar    1  UNL1        0.1065
      7 N           3.7497    0.8250   19.7643 N.am    1  UNL1       -0.2430
      8 C           2.3097    1.1947   19.5653 C.2     1  UNL1        0.3114
      9 O           1.2616    0.1233   19.5049 O.2     1  UNL1       -0.2519
     10 N           1.9176    2.6359   19.4266 N.am    1  UNL1       -0.2678
     11 C           4.9025    1.7812   19.8447 C.3     1  UNL1        0.1045
     12 C           6.1550    0.9812   20.0479 C.3     1  UNL1        0.0496
     13 H           2.6055    3.3391   19.4662 H       1  UNL1        0.1564
     14 C           0.4776    3.0058   19.2276 C.ar    1  UNL1        0.0538
     15 C          -0.0217    3.3676   17.8603 C.ar    1  UNL1        0.0443
     16 C          -1.4618    3.7374   17.6614 C.ar    1  UNL1        0.1414
     17 F          -1.9612    4.0993   16.2940 F       1  UNL1       -0.2041
     18 C          -2.4023    3.7454   18.8298 C.ar    1  UNL1        0.0298
     19 C          -1.9030    3.3836   20.1971 C.ar    1  UNL1        0.0050
     20 C          -0.4630    3.0138   20.3960 C.ar    1  UNL1        0.0149
     21 C          -2.8436    3.3916   21.3655 C.ar    1  UNL1        0.0193
     22 C          -2.3123    3.5859   22.7548 C.ar    1  UNL1        0.0031
     23 C          -3.2529    3.5939   23.9232 C.ar    1  UNL1        0.0207
     24 C          -4.7248    3.4076   23.7024 C.ar    1  UNL1        0.0989
     25 N          -5.2561    3.2133   22.3131 N.ar    1  UNL1       -0.2423
     26 C          -4.3155    3.2053   21.1447 C.ar    1  UNL1        0.0988
     27 C           3.7666   -4.4957   20.1016 C.3     1  UNL1        0.4214
     28 F           3.0967   -5.8378   20.1044 F       1  UNL1       -0.1657
     29 F           3.9109   -4.5646   21.5930 F       1  UNL1       -0.1657
     30 F           3.6222   -4.4269   18.6102 F       1  UNL1       -0.1657
     31 C           8.1448   -4.2105   20.9694 C.3     1  UNL1        0.2525
     32 O           6.7397   -4.3026   20.4522 O.3     1  UNL1       -0.4715
@<TRIPOS>BOND
     1    31    32    1
     2    32     1    1
     3     1     2   ar
     4     2     3   ar
     5     3     4   ar
     6     4     5   ar
     7     5     6   ar
     8     6    27    1
     9    27    28    1
    10    27    29    1
    11    27    30    1
    12     4     7    1
    13     7     8   am
    14     8     9    2
    15     8    10   am
    16    10    14    1
    17    14    15   ar
    18    15    16   ar
    19    16    17    1
    20    16    18   ar
    21    18    19   ar
    22    19    21    1
    23    21    22   ar
    24    22    23   ar
    25    23    24   ar
    26    24    25   ar
    27    25    26   ar
    28    19    20   ar
    29     7    11    1
    30    11    12    1
    31     6     1   ar
    32    20    14   ar
    33    12     3    1
    34    26    21   ar
    35    10    13    1
