@<TRIPOS>MOLECULE
*****
 35 39 0 0 0
SMALL
GASTEIGER

@<TRIPOS>ATOM
      1 C          -1.1619    3.1997   26.4096 C.3     1  UNL1        0.0177
      2 C          -1.5534    3.2269   24.9618 C.3     1  UNL1        0.0624
      3 C          -2.9633    3.5591   24.5723 C.3     1  UNL1        0.0384
      4 C          -3.3548    3.5863   23.1245 C.2     1  UNL1       -0.0343
      5 C          -2.3364    3.2814   22.0663 C.2     1  UNL1       -0.0092
      6 C          -2.7279    3.3086   20.6186 C.2     1  UNL1       -0.0019
      7 C          -4.1379    3.6408   20.2290 C.2     1  UNL1        0.0169
      8 C          -5.1563    3.9457   21.2872 C.2     1  UNL1        0.0896
      9 N          -6.6106    4.3040   21.2069 N.2     1  UNL1       -0.1520
     10 N          -7.1180    4.4982   22.6051 N.2     1  UNL1       -0.1507
     11 C          -5.9772    4.2600   23.5495 C.2     1  UNL1        0.1054
     12 C          -4.7647    3.9185   22.7350 C.3     1  UNL1        0.1032
     13 C          -0.9264    2.9492   22.4559 C.3     1  UNL1        0.1205
     14 N          -0.5350    2.9220   23.9036 N.3     1  UNL1       -0.2595
     15 C           0.0920    2.6442   21.3977 C.ar    1  UNL1        0.0778
     16 C           0.1716    1.2673   20.8079 C.ar    1  UNL1        0.0177
     17 C           1.1900    0.9623   19.7497 C.ar    1  UNL1        0.0171
     18 C           2.1289    2.0344   19.2812 C.ar    1  UNL1        0.0641
     19 C           2.0492    3.4112   19.8709 C.ar    1  UNL1        0.1127
     20 N           1.0308    3.7162   20.9292 N.ar    1  UNL1       -0.2452
     21 N           3.1473    1.7294   18.2230 N.pl3   1  UNL1       -0.3305
     22 H           3.3478    2.3955   17.5263 H       1  UNL1        0.1469
     23 C           3.8602    0.4097   18.2263 C.3     1  UNL1        0.1014
     24 C           4.7374   -0.3196   19.2004 C.3     1  UNL1        0.0933
     25 N           4.8684   -1.4567   18.2310 N.3     1  UNL1       -0.2697
     26 C           3.9912   -0.7275   17.2570 C.3     1  UNL1        0.0933
     27 C           5.5813   -2.7765   18.2342 C.3     1  UNL1        0.0751
     28 C           4.8534   -4.0211   18.6480 C.3     1  UNL1        0.0554
     29 C           3.5355   -3.9185   19.3570 C.3     1  UNL1        0.1947
     30 F           2.5423   -5.0384   19.2597 F       1  UNL1       -0.2343
     31 C           0.8750    2.5898   24.2932 C.3     1  UNL1        0.1771
     32 C           1.4070    1.2045   24.0745 C.3     1  UNL1        0.4121
     33 F           1.9391   -0.1808   23.8558 F       1  UNL1       -0.1685
     34 F           0.1605    0.6302   24.6796 F       1  UNL1       -0.1685
     35 F           2.6536    1.7788   23.4693 F       1  UNL1       -0.1685
@<TRIPOS>BOND
     1     2     1    1
     2     2     3    1
     3     3     4    1
     4     4     5    2
     5     5     6    1
     6     6     7    2
     7     7     8    1
     8     8     9    2
     9     9    10    1
    10    10    11    2
    11    11    12    1
    12     5    13    1
    13    13    15    1
    14    15    16   ar
    15    16    17   ar
    16    17    18   ar
    17    18    21    1
    18    21    23    1
    19    23    24    1
    20    24    25    1
    21    25    27    1
    22    27    28    1
    23    28    29    1
    24    29    30    1
    25    25    26    1
    26    18    19   ar
    27    19    20   ar
    28    13    14    1
    29    14    31    1
    30    31    32    1
    31    32    33    1
    32    32    34    1
    33    32    35    1
    34    14     2    1
    35    12     4    1
    36    20    15   ar
    37    12     8    1
    38    26    23    1
    39    21    22    1
@<TRIPOS>MOLECULE
*****
 35 39 0 0 0
SMALL
GASTEIGER

@<TRIPOS>ATOM
      1 C           5.5924   -3.6175   18.9093 C.3     1  UNL1        0.0177
      2 C           4.9942   -2.8164   20.0275 C.3     1  UNL1        0.0624
      3 C           5.4392   -3.0521   21.4404 C.3     1  UNL1        0.0384
      4 C           4.8411   -2.2510   22.5587 C.2     1  UNL1       -0.0343
      5 C           3.7980   -1.2142   22.2641 C.2     1  UNL1       -0.0092
      6 C           3.1999   -0.4132   23.3823 C.2     1  UNL1       -0.0019
      7 C           3.6449   -0.6489   24.7953 C.2     1  UNL1        0.0169
      8 C           4.6881   -1.6857   25.0899 C.2     1  UNL1        0.0896
      9 N           5.3204   -2.1369   26.3731 N.2     1  UNL1       -0.1520
     10 N           6.3093   -3.2168   26.0479 N.2     1  UNL1       -0.1507
     11 C           6.2881   -3.4331   24.5637 C.2     1  UNL1        0.1054
     12 C           5.2862   -2.4868   23.9716 C.3     1  UNL1        0.1032
     13 C           3.3530   -0.9785   20.8511 C.3     1  UNL1        0.1205
     14 N           3.9511   -1.7796   19.7329 N.3     1  UNL1       -0.2595
     15 C           2.3098    0.0583   20.5564 C.ar    1  UNL1        0.0778
     16 C           0.8613   -0.3282   20.5058 C.ar    1  UNL1        0.0177
     17 C          -0.1818    0.7086   20.2112 C.ar    1  UNL1        0.0171
     18 C           0.2236    2.1321   19.9671 C.ar    1  UNL1        0.0641
     19 C           1.6720    2.5186   20.0177 C.ar    1  UNL1        0.1127
     20 N           2.7151    1.4817   20.3124 N.ar    1  UNL1       -0.2452
     21 N          -0.8196    3.1689   19.6725 N.pl3   1  UNL1       -0.3305
     22 H          -0.7424    3.7298   18.8671 H       1  UNL1        0.1469
     23 C          -1.9803    3.3511   20.6050 C.3     1  UNL1        0.1014
     24 C          -3.4690    3.2112   20.4855 C.3     1  UNL1        0.0933
     25 N          -3.6218    3.6088   21.9237 N.3     1  UNL1       -0.2697
     26 C          -2.1331    3.7488   22.0432 C.3     1  UNL1        0.0933
     27 C          -4.7825    3.7911   22.8562 C.3     1  UNL1        0.0751
     28 C          -4.7319    3.2114   24.2388 C.3     1  UNL1        0.0554
     29 C          -4.1360    4.0051   25.3635 C.3     1  UNL1        0.1947
     30 F          -3.6888    3.3116   26.6161 F       1  UNL1       -0.2343
     31 C           3.5060   -1.5439   18.3199 C.3     1  UNL1        0.1771
     32 C           4.3176   -0.6654   17.4146 C.3     1  UNL1        0.4121
     33 F           5.1292    0.2131   16.5093 F       1  UNL1       -0.1685
     34 F           3.5656   -1.1927   16.2287 F       1  UNL1       -0.1685
     35 F           5.0696   -0.1381   18.6005 F       1  UNL1       -0.1685
@<TRIPOS>BOND
     1     2     1    1
     2     2     3    1
     3     3     4    1
     4     4     5    2
     5     5     6    1
     6     6     7    2
     7     7     8    1
     8     8     9    2
     9     9    10    1
    10    10    11    2
    11    11    12    1
    12     5    13    1
    13    13    15    1
    14    15    16   ar
    15    16    17   ar
    16    17    18   ar
    17    18    21    1
    18    21    23    1
    19    23    24    1
    20    24    25    1
    21    25    27    1
    22    27    28    1
    23    28    29    1
    24    29    30    1
    25    25    26    1
    26    18    19   ar
    27    19    20   ar
    28    13    14    1
    29    14    31    1
    30    31    32    1
    31    32    33    1
    32    32    34    1
    33    32    35    1
    34    14     2    1
    35    12     4    1
    36    20    15   ar
    37    12     8    1
    38    26    23    1
    39    21    22    1
@<TRIPOS>MOLECULE
*****
 35 39 0 0 0
SMALL
GASTEIGER

@<TRIPOS>ATOM
      1 C           1.8573    3.7863   32.1983 C.3     1  UNL1        0.0177
      2 C           2.5423    2.9206   33.2140 C.3     1  UNL1        0.0624
      3 C           2.4641    3.2686   34.6709 C.3     1  UNL1        0.0384
      4 C           3.1490    2.4029   35.6866 C.2     1  UNL1       -0.0343
      5 C           3.9121    1.1893   35.2453 C.2     1  UNL1       -0.0092
      6 C           4.5969    0.3237   36.2609 C.2     1  UNL1       -0.0019
      7 C           4.5188    0.6717   37.7180 C.2     1  UNL1        0.0169
      8 C           3.7557    1.8853   38.1593 C.2     1  UNL1        0.0896
      9 N           3.5054    2.4753   39.5155 N.2     1  UNL1       -0.1520
     10 N           2.6658    3.7055   39.3380 N.2     1  UNL1       -0.1507
     11 C           2.3972    3.8759   37.8721 C.2     1  UNL1        0.1054
     12 C           3.0708    2.7509   37.1436 C.3     1  UNL1        0.1032
     13 C           3.9902    0.8413   33.7883 C.3     1  UNL1        0.1205
     14 N           3.3054    1.7069   32.7727 N.3     1  UNL1       -0.2595
     15 C           4.7534   -0.3723   33.3470 C.ar    1  UNL1        0.0778
     16 C           6.1763   -0.2390   32.8914 C.ar    1  UNL1        0.0177
     17 C           6.9394   -1.4526   32.4501 C.ar    1  UNL1        0.0171
     18 C           6.2795   -2.7997   32.4644 C.ar    1  UNL1        0.0641
     19 C           4.8567   -2.9330   32.9200 C.ar    1  UNL1        0.1127
     20 N           4.0936   -1.7193   33.3613 N.ar    1  UNL1       -0.2452
     21 N           7.0426   -4.0133   32.0232 N.pl3   1  UNL1       -0.3305
     22 H           7.6239   -4.4879   32.6604 H       1  UNL1        0.1469
     23 C           6.9201   -4.5038   30.6109 C.3     1  UNL1        0.1014
     24 C           7.1578   -5.8130   29.9185 C.3     1  UNL1        0.0933
     25 N           6.7468   -5.1975   28.6138 N.3     1  UNL1       -0.2697
     26 C           6.5091   -3.8884   29.3062 C.3     1  UNL1        0.0933
     27 C           6.6242   -5.6880   27.2015 C.3     1  UNL1        0.0751
     28 C           7.8487   -5.8232   26.3456 C.3     1  UNL1        0.0554
     29 C           7.8151   -6.6866   25.1195 C.3     1  UNL1        0.1947
     30 F           8.1239   -8.1507   25.2245 F       1  UNL1       -0.2343
     31 C           3.3836    1.3590   31.3156 C.3     1  UNL1        0.1771
     32 C           2.5779    0.2159   30.7732 C.3     1  UNL1        0.4121
     33 F           1.7723   -0.9272   30.2308 F       1  UNL1       -0.1685
     34 F           1.3140    0.9130   31.1814 F       1  UNL1       -0.1685
     35 F           3.8418   -0.4812   30.3650 F       1  UNL1       -0.1685
@<TRIPOS>BOND
     1     2     1    1
     2     2     3    1
     3     3     4    1
     4     4     5    2
     5     5     6    1
     6     6     7    2
     7     7     8    1
     8     8     9    2
     9     9    10    1
    10    10    11    2
    11    11    12    1
    12     5    13    1
    13    13    15    1
    14    15    16   ar
    15    16    17   ar
    16    17    18   ar
    17    18    21    1
    18    21    23    1
    19    23    24    1
    20    24    25    1
    21    25    27    1
    22    27    28    1
    23    28    29    1
    24    29    30    1
    25    25    26    1
    26    18    19   ar
    27    19    20   ar
    28    13    14    1
    29    14    31    1
    30    31    32    1
    31    32    33    1
    32    32    34    1
    33    32    35    1
    34    14     2    1
    35    12     4    1
    36    20    15   ar
    37    12     8    1
    38    26    23    1
    39    21    22    1
@<TRIPOS>MOLECULE
*****
 35 39 0 0 0
SMALL
GASTEIGER

@<TRIPOS>ATOM
      1 C           3.0491   -0.1026   17.7386 C.3     1  UNL1        0.0177
      2 C           3.0930   -0.1967   19.2351 C.3     1  UNL1        0.0624
      3 C           2.1122    0.5783   20.0642 C.3     1  UNL1        0.0384
      4 C           2.1560    0.4843   21.5607 C.2     1  UNL1       -0.0343
      5 C           3.1805   -0.3846   22.2279 C.2     1  UNL1       -0.0092
      6 C           3.2243   -0.4786   23.7242 C.2     1  UNL1       -0.0019
      7 C           2.2435    0.2964   24.5535 C.2     1  UNL1        0.0169
      8 C           1.2190    1.1653   23.8862 C.2     1  UNL1        0.0896
      9 N           0.1314    2.0389   24.4376 N.2     1  UNL1       -0.1520
     10 N          -0.5845    2.6728   23.2819 N.2     1  UNL1       -0.1507
     11 C           0.0605    2.1910   22.0163 C.2     1  UNL1        0.1054
     12 C           1.1752    1.2593   22.3898 C.3     1  UNL1        0.1032
     13 C           4.1613   -1.1596   21.3987 C.3     1  UNL1        0.1205
     14 N           4.1175   -1.0656   19.9023 N.3     1  UNL1       -0.2595
     15 C           5.1858   -2.0285   22.0659 C.ar    1  UNL1        0.0778
     16 C           4.8261   -3.4215   22.4906 C.ar    1  UNL1        0.0177
     17 C           5.8506   -4.2904   23.1578 C.ar    1  UNL1        0.0171
     18 C           7.2351   -3.7663   23.4005 C.ar    1  UNL1        0.0641
     19 C           7.5949   -2.3735   22.9759 C.ar    1  UNL1        0.1127
     20 N           6.5702   -1.5045   22.3086 N.ar    1  UNL1       -0.2452
     21 N           8.2596   -4.6352   24.0677 N.pl3   1  UNL1       -0.3305
     22 H           9.0656   -4.9129   23.5752 H       1  UNL1        0.1469
     23 C           8.0562   -5.0811   25.4854 C.3     1  UNL1        0.1014
     24 C           6.9128   -5.6675   26.2592 C.3     1  UNL1        0.0933
     25 N           7.7686   -5.7116   27.4903 N.3     1  UNL1       -0.2697
     26 C           8.9120   -5.1252   26.7165 C.3     1  UNL1        0.0933
     27 C           7.5653   -6.1575   28.9081 C.3     1  UNL1        0.0751
     28 C           7.1041   -5.1757   29.9441 C.3     1  UNL1        0.0554
     29 C           6.9222   -5.6162   31.3664 C.3     1  UNL1        0.1947
     30 F           6.4843   -4.6288   32.4072 F       1  UNL1       -0.2343
     31 C           5.0983   -1.8405   19.0731 C.3     1  UNL1        0.1771
     32 C           4.9641   -3.3293   18.9489 C.3     1  UNL1        0.4121
     33 F           4.8298   -4.8181   18.8247 F       1  UNL1       -0.1685
     34 F           6.4163   -3.4886   19.2887 F       1  UNL1       -0.1685
     35 F           3.5118   -3.1700   18.6091 F       1  UNL1       -0.1685
@<TRIPOS>BOND
     1     2     1    1
     2     2     3    1
     3     3     4    1
     4     4     5    2
     5     5     6    1
     6     6     7    2
     7     7     8    1
     8     8     9    2
     9     9    10    1
    10    10    11    2
    11    11    12    1
    12     5    13    1
    13    13    15    1
    14    15    16   ar
    15    16    17   ar
    16    17    18   ar
    17    18    21    1
    18    21    23    1
    19    23    24    1
    20    24    25    1
    21    25    27    1
    22    27    28    1
    23    28    29    1
    24    29    30    1
    25    25    26    1
    26    18    19   ar
    27    19    20   ar
    28    13    14    1
    29    14    31    1
    30    31    32    1
    31    32    33    1
    32    32    34    1
    33    32    35    1
    34    14     2    1
    35    12     4    1
    36    20    15   ar
    37    12     8    1
    38    26    23    1
    39    21    22    1
@<TRIPOS>MOLECULE
*****
 35 39 0 0 0
SMALL
GASTEIGER

@<TRIPOS>ATOM
      1 C           6.1189   -1.9407   28.7960 C.3     1  UNL1        0.0177
      2 C           6.4681   -2.8947   27.6924 C.3     1  UNL1        0.0624
      3 C           7.0517   -4.2375   28.0185 C.3     1  UNL1        0.0384
      4 C           7.4010   -5.1916   26.9150 C.2     1  UNL1       -0.0343
      5 C           7.1667   -4.8029   25.4853 C.2     1  UNL1       -0.0092
      6 C           7.5159   -5.7569   24.3819 C.2     1  UNL1       -0.0019
      7 C           8.0995   -7.0998   24.7080 C.2     1  UNL1        0.0169
      8 C           8.3338   -7.4884   26.1377 C.2     1  UNL1        0.0896
      9 N           8.8909   -8.7340   26.7607 N.2     1  UNL1       -0.1520
     10 N           8.8859   -8.5497   28.2494 N.2     1  UNL1       -0.1507
     11 C           8.3258   -7.1903   28.5463 C.2     1  UNL1        0.1054
     12 C           7.9846   -6.5343   27.2412 C.3     1  UNL1        0.1032
     13 C           6.5831   -3.4601   25.1592 C.3     1  UNL1        0.1205
     14 N           6.2338   -2.5061   26.2627 N.3     1  UNL1       -0.2595
     15 C           6.3488   -3.0714   23.7295 C.ar    1  UNL1        0.0778
     16 C           5.1017   -3.5178   23.0256 C.ar    1  UNL1        0.0177
     17 C           4.8674   -3.1291   21.5959 C.ar    1  UNL1        0.0171
     18 C           5.8802   -2.2940   20.8701 C.ar    1  UNL1        0.0641
     19 C           7.1272   -1.8476   21.5740 C.ar    1  UNL1        0.1127
     20 N           7.3615   -2.2363   23.0037 N.ar    1  UNL1       -0.2452
     21 N           5.6459   -1.9053   19.4404 N.pl3   1  UNL1       -0.3305
     22 H           6.1670   -2.3323   18.7225 H       1  UNL1        0.1469
     23 C           4.6177   -0.8661   19.1046 C.3     1  UNL1        0.1014
     24 C           4.2268    0.4636   19.6784 C.3     1  UNL1        0.0933
     25 N           3.1636    0.6036   18.6296 N.3     1  UNL1       -0.2697
     26 C           3.5545   -0.7261   18.0558 C.3     1  UNL1        0.0933
     27 C           2.1353    1.6427   18.2936 C.3     1  UNL1        0.0751
     28 C           0.7238    1.4846   18.7761 C.3     1  UNL1        0.0554
     29 C           0.4377    0.6731   20.0048 C.3     1  UNL1        0.1947
     30 F           0.7770   -0.7877   20.0347 F       1  UNL1       -0.2343
     31 C           5.6502   -1.1632   25.9366 C.3     1  UNL1        0.1771
     32 C           4.2878   -1.0681   25.3164 C.3     1  UNL1        0.4121
     33 F           2.9253   -0.9731   24.6963 F       1  UNL1       -0.1685
     34 F           4.8644   -0.2941   24.1682 F       1  UNL1       -0.1685
     35 F           3.7111   -1.8421   26.4646 F       1  UNL1       -0.1685
@<TRIPOS>BOND
     1     2     1    1
     2     2     3    1
     3     3     4    1
     4     4     5    2
     5     5     6    1
     6     6     7    2
     7     7     8    1
     8     8     9    2
     9     9    10    1
    10    10    11    2
    11    11    12    1
    12     5    13    1
    13    13    15    1
    14    15    16   ar
    15    16    17   ar
    16    17    18   ar
    17    18    21    1
    18    21    23    1
    19    23    24    1
    20    24    25    1
    21    25    27    1
    22    27    28    1
    23    28    29    1
    24    29    30    1
    25    25    26    1
    26    18    19   ar
    27    19    20   ar
    28    13    14    1
    29    14    31    1
    30    31    32    1
    31    32    33    1
    32    32    34    1
    33    32    35    1
    34    14     2    1
    35    12     4    1
    36    20    15   ar
    37    12     8    1
    38    26    23    1
    39    21    22    1
@<TRIPOS>MOLECULE
*****
 35 39 0 0 0
SMALL
GASTEIGER

@<TRIPOS>ATOM
      1 C           4.1565   -0.6050   33.4837 C.3     1  UNL1        0.0177
      2 C           3.2314    0.5295   33.1565 C.3     1  UNL1        0.0624
      3 C           2.9804    1.6081   34.1683 C.3     1  UNL1        0.0384
      4 C           2.0553    2.7427   33.8413 C.2     1  UNL1       -0.0343
      5 C           1.3812    2.7987   32.5025 C.2     1  UNL1       -0.0092
      6 C           0.4562    3.9332   32.1754 C.2     1  UNL1       -0.0019
      7 C           0.2052    5.0119   33.1872 C.2     1  UNL1        0.0169
      8 C           0.8793    4.9559   34.5260 C.2     1  UNL1        0.0896
      9 N           0.8257    5.8680   35.7156 N.2     1  UNL1       -0.1520
     10 N           1.7177    5.2971   36.7779 N.2     1  UNL1       -0.1507
     11 C           2.3226    4.0322   36.2448 C.2     1  UNL1        0.1054
     12 C           1.8044    3.8213   34.8530 C.3     1  UNL1        0.1032
     13 C           1.6323    1.7201   31.4907 C.3     1  UNL1        0.1205
     14 N           2.5573    0.5856   31.8177 N.3     1  UNL1       -0.2595
     15 C           0.9581    1.7761   30.1519 C.ar    1  UNL1        0.0778
     16 C           1.4939    2.6776   29.0794 C.ar    1  UNL1        0.0177
     17 C           0.8198    2.7337   27.7406 C.ar    1  UNL1        0.0171
     18 C          -0.3902    1.8880   27.4743 C.ar    1  UNL1        0.0641
     19 C          -0.9260    0.9865   28.5466 C.ar    1  UNL1        0.1127
     20 N          -0.2518    0.9305   29.8855 N.ar    1  UNL1       -0.2452
     21 N          -1.0643    1.9441   26.1354 N.pl3   1  UNL1       -0.3305
     22 H          -2.0460    1.9941   26.0803 H       1  UNL1        0.1469
     23 C          -0.2427    1.9238   24.8806 C.3     1  UNL1        0.1014
     24 C           0.8584    1.0558   24.3477 C.3     1  UNL1        0.0933
     25 N           0.9192    1.8951   23.1060 N.3     1  UNL1       -0.2697
     26 C          -0.1820    2.7632   23.6390 C.3     1  UNL1        0.0933
     27 C           1.7407    1.8750   21.8511 C.3     1  UNL1        0.0751
     28 C           1.1415    1.3742   20.5704 C.3     1  UNL1        0.0554
     29 C           0.4698    0.0336   20.5304 C.3     1  UNL1        0.1947
     30 F           1.1733   -1.1396   19.9151 F       1  UNL1       -0.2343
     31 C           2.8083   -0.4931   30.8060 C.3     1  UNL1        0.1771
     32 C           3.5434   -0.1754   29.5377 C.3     1  UNL1        0.4121
     33 F           4.2786    0.1422   28.2694 F       1  UNL1       -0.1685
     34 F           4.6227    0.4984   30.3320 F       1  UNL1       -0.1685
     35 F           2.4641   -0.8493   28.7433 F       1  UNL1       -0.1685
@<TRIPOS>BOND
     1     2     1    1
     2     2     3    1
     3     3     4    1
     4     4     5    2
     5     5     6    1
     6     6     7    2
     7     7     8    1
     8     8     9    2
     9     9    10    1
    10    10    11    2
    11    11    12    1
    12     5    13    1
    13    13    15    1
    14    15    16   ar
    15    16    17   ar
    16    17    18   ar
    17    18    21    1
    18    21    23    1
    19    23    24    1
    20    24    25    1
    21    25    27    1
    22    27    28    1
    23    28    29    1
    24    29    30    1
    25    25    26    1
    26    18    19   ar
    27    19    20   ar
    28    13    14    1
    29    14    31    1
    30    31    32    1
    31    32    33    1
    32    32    34    1
    33    32    35    1
    34    14     2    1
    35    12     4    1
    36    20    15   ar
    37    12     8    1
    38    26    23    1
    39    21    22    1
@<TRIPOS>MOLECULE
*****
 35 39 0 0 0
SMALL
GASTEIGER

@<TRIPOS>ATOM
      1 C           6.1934   -3.5649   21.9480 C.3     1  UNL1        0.0177
      2 C           5.2171   -2.5329   22.4298 C.3     1  UNL1        0.0624
      3 C           5.0200   -2.3163   23.9009 C.3     1  UNL1        0.0384
      4 C           4.0438   -1.2844   24.3829 C.2     1  UNL1       -0.0343
      5 C           3.2648   -0.4691   23.3937 C.2     1  UNL1       -0.0092
      6 C           2.2887    0.5627   23.8756 C.2     1  UNL1       -0.0019
      7 C           2.0915    0.7794   25.3468 C.2     1  UNL1        0.0169
      8 C           2.8705   -0.0359   26.3360 C.2     1  UNL1        0.0896
      9 N           2.8883   -0.0457   27.8358 N.2     1  UNL1       -0.1520
     10 N           3.8755   -1.0836   28.2808 N.2     1  UNL1       -0.1507
     11 C           4.4678   -1.7153   27.0560 C.2     1  UNL1        0.1054
     12 C           3.8467   -1.0678   25.8540 C.3     1  UNL1        0.1032
     13 C           3.4620   -0.6858   21.9226 C.3     1  UNL1        0.1205
     14 N           4.4381   -1.7177   21.4407 N.3     1  UNL1       -0.2595
     15 C           2.6830    0.1294   20.9334 C.ar    1  UNL1        0.0778
     16 C           1.2906   -0.2803   20.5548 C.ar    1  UNL1        0.0177
     17 C           0.5115    0.5350   19.5657 C.ar    1  UNL1        0.0171
     18 C           1.1250    1.7601   18.9550 C.ar    1  UNL1        0.0641
     19 C           2.5174    2.1699   19.3335 C.ar    1  UNL1        0.1127
     20 N           3.2964    1.3545   20.3228 N.ar    1  UNL1       -0.2452
     21 N           0.3460    2.5754   17.9659 N.pl3   1  UNL1       -0.3305
     22 H           0.6066    2.5782   17.0165 H       1  UNL1        0.1469
     23 C          -0.8301    3.3864   18.4232 C.3     1  UNL1        0.1014
     24 C          -1.4766    3.6635   19.7480 C.3     1  UNL1        0.0933
     25 N          -2.4933    4.5333   19.0699 N.3     1  UNL1       -0.2697
     26 C          -1.8468    4.2561   17.7451 C.3     1  UNL1        0.0933
     27 C          -3.6695    5.3443   19.5272 C.3     1  UNL1        0.0751
     28 C          -4.8572    4.6634   20.1399 C.3     1  UNL1        0.0554
     29 C          -5.4399    3.4432   19.4905 C.3     1  UNL1        0.1947
     30 F          -5.2893    3.2358   18.0126 F       1  UNL1       -0.2343
     31 C           4.6353   -1.9344   19.9695 C.3     1  UNL1        0.1771
     32 C           4.1573   -3.2028   19.3275 C.3     1  UNL1        0.4121
     33 F           3.6791   -4.4714   18.6855 F       1  UNL1       -0.1685
     34 F           5.5387   -3.4574   18.8016 F       1  UNL1       -0.1685
     35 F           2.7757   -2.9483   19.8534 F       1  UNL1       -0.1685
@<TRIPOS>BOND
     1     2     1    1
     2     2     3    1
     3     3     4    1
     4     4     5    2
     5     5     6    1
     6     6     7    2
     7     7     8    1
     8     8     9    2
     9     9    10    1
    10    10    11    2
    11    11    12    1
    12     5    13    1
    13    13    15    1
    14    15    16   ar
    15    16    17   ar
    16    17    18   ar
    17    18    21    1
    18    21    23    1
    19    23    24    1
    20    24    25    1
    21    25    27    1
    22    27    28    1
    23    28    29    1
    24    29    30    1
    25    25    26    1
    26    18    19   ar
    27    19    20   ar
    28    13    14    1
    29    14    31    1
    30    31    32    1
    31    32    33    1
    32    32    34    1
    33    32    35    1
    34    14     2    1
    35    12     4    1
    36    20    15   ar
    37    12     8    1
    38    26    23    1
    39    21    22    1
@<TRIPOS>MOLECULE
*****
 35 39 0 0 0
SMALL
GASTEIGER

@<TRIPOS>ATOM
      1 C           4.0393   -0.6910   33.3113 C.3     1  UNL1        0.0177
      2 C           3.1435    0.4624   32.9686 C.3     1  UNL1        0.0624
      3 C           2.9035    1.5499   33.9734 C.3     1  UNL1        0.0384
      4 C           2.0078    2.7032   33.6309 C.2     1  UNL1       -0.0343
      5 C           1.3520    2.7691   32.2834 C.2     1  UNL1       -0.0092
      6 C           0.4563    3.9224   31.9408 C.2     1  UNL1       -0.0019
      7 C           0.2162    5.0100   32.9457 C.2     1  UNL1        0.0169
      8 C           0.8720    4.9441   34.2931 C.2     1  UNL1        0.0896
      9 N           0.8235    5.8615   35.4788 N.2     1  UNL1       -0.1520
     10 N           1.6893    5.2751   36.5543 N.2     1  UNL1       -0.1507
     11 C           2.2729    3.9953   36.0332 C.2     1  UNL1        0.1054
     12 C           1.7678    3.7907   34.6357 C.3     1  UNL1        0.1032
     13 C           1.5920    1.6815   31.2786 C.3     1  UNL1        0.1205
     14 N           2.4877    0.5282   31.6212 N.3     1  UNL1       -0.2595
     15 C           0.9362    1.7474   29.9311 C.ar    1  UNL1        0.0778
     16 C           1.5054    2.6328   28.8624 C.ar    1  UNL1        0.0177
     17 C           0.8496    2.6986   27.5149 C.ar    1  UNL1        0.0171
     18 C          -0.3754    1.8790   27.2362 C.ar    1  UNL1        0.0641
     19 C          -0.9446    0.9937   28.3049 C.ar    1  UNL1        0.1127
     20 N          -0.2888    0.9278   29.6524 N.ar    1  UNL1       -0.2452
     21 N          -1.0312    1.9449   25.8888 N.pl3   1  UNL1       -0.3305
     22 H          -0.7440    1.3351   25.1712 H       1  UNL1        0.1469
     23 C          -2.1246    2.9399   25.6346 C.3     1  UNL1        0.1014
     24 C          -2.7291    3.5620   24.4109 C.3     1  UNL1        0.0933
     25 N          -3.6708    4.3470   25.2752 N.3     1  UNL1       -0.2697
     26 C          -3.0663    3.7248   26.4989 C.3     1  UNL1        0.0933
     27 C          -4.7642    5.3420   25.0211 C.3     1  UNL1        0.0751
     28 C          -6.1937    4.8899   24.9751 C.3     1  UNL1        0.0554
     29 C          -6.7948    4.4344   23.6785 C.3     1  UNL1        0.1947
     30 F          -5.9925    3.5861   22.7369 F       1  UNL1       -0.2343
     31 C           2.7278   -0.5593   30.6163 C.3     1  UNL1        0.1771
     32 C           3.4906   -0.2639   29.3591 C.3     1  UNL1        0.4121
     33 F           4.2536    0.0316   28.1019 F       1  UNL1       -0.1685
     34 F           2.4306   -0.9545   28.5535 F       1  UNL1       -0.1685
     35 F           4.5508    0.4268   30.1647 F       1  UNL1       -0.1685
@<TRIPOS>BOND
     1     2     1    1
     2     2     3    1
     3     3     4    1
     4     4     5    2
     5     5     6    1
     6     6     7    2
     7     7     8    1
     8     8     9    2
     9     9    10    1
    10    10    11    2
    11    11    12    1
    12     5    13    1
    13    13    15    1
    14    15    16   ar
    15    16    17   ar
    16    17    18   ar
    17    18    21    1
    18    21    23    1
    19    23    24    1
    20    24    25    1
    21    25    27    1
    22    27    28    1
    23    28    29    1
    24    29    30    1
    25    25    26    1
    26    18    19   ar
    27    19    20   ar
    28    13    14    1
    29    14    31    1
    30    31    32    1
    31    32    33    1
    32    32    34    1
    33    32    35    1
    34    14     2    1
    35    12     4    1
    36    20    15   ar
    37    12     8    1
    38    26    23    1
    39    21    22    1
@<TRIPOS>MOLECULE
*****
 35 39 0 0 0
SMALL
GASTEIGER

@<TRIPOS>ATOM
      1 C           3.5453   -0.8167   17.0776 C.3     1  UNL1        0.0177
      2 C           3.2129   -0.4949   18.5045 C.3     1  UNL1        0.0624
      3 C           2.0309    0.3724   18.8218 C.3     1  UNL1        0.0384
      4 C           1.6984    0.6943   20.2487 C.2     1  UNL1       -0.0343
      5 C           2.5478    0.1488   21.3581 C.2     1  UNL1       -0.0092
      6 C           2.2154    0.4707   22.7849 C.2     1  UNL1       -0.0019
      7 C           1.0334    1.3380   23.1023 C.2     1  UNL1        0.0169
      8 C           0.1839    1.8834   21.9929 C.2     1  UNL1        0.0896
      9 N          -1.0343    2.7586   21.9989 N.2     1  UNL1       -0.1520
     10 N          -1.4547    2.9776   20.5757 N.2     1  UNL1       -0.1507
     11 C          -0.4963    2.2378   19.6902 C.2     1  UNL1        0.1054
     12 C           0.5164    1.5615   20.5660 C.3     1  UNL1        0.1032
     13 C           3.7299   -0.7185   21.0407 C.3     1  UNL1        0.1205
     14 N           4.0623   -1.0403   19.6139 N.3     1  UNL1       -0.2595
     15 C           4.5793   -1.2639   22.1502 C.ar    1  UNL1        0.0778
     16 C           5.7214   -0.4538   22.6881 C.ar    1  UNL1        0.0177
     17 C           6.5709   -0.9992   23.7976 C.ar    1  UNL1        0.0171
     18 C           6.2782   -2.3548   24.3691 C.ar    1  UNL1        0.0641
     19 C           5.1362   -3.1650   23.8313 C.ar    1  UNL1        0.1127
     20 N           4.2867   -2.6195   22.7217 N.ar    1  UNL1       -0.2452
     21 N           7.1276   -2.9003   25.4786 N.pl3   1  UNL1       -0.3305
     22 H           7.8933   -3.4834   25.2713 H       1  UNL1        0.1469
     23 C           6.8106   -2.5572   26.9040 C.3     1  UNL1        0.1014
     24 C           5.7039   -1.8181   27.5961 C.3     1  UNL1        0.0933
     25 N           6.3622   -2.0720   28.9198 N.3     1  UNL1       -0.2697
     26 C           7.4689   -2.8111   28.2277 C.3     1  UNL1        0.0933
     27 C           6.0452   -1.7290   30.3453 C.3     1  UNL1        0.0751
     28 C           6.0047   -2.8091   31.3854 C.3     1  UNL1        0.0554
     29 C           5.5835   -2.4843   32.7879 C.3     1  UNL1        0.1947
     30 F           4.4375   -3.2202   33.4164 F       1  UNL1       -0.2343
     31 C           5.2444   -1.9077   19.2965 C.3     1  UNL1        0.1771
     32 C           5.0358   -3.2913   18.7565 C.3     1  UNL1        0.4121
     33 F           4.8272   -4.6752   18.2164 F       1  UNL1       -0.1685
     34 F           6.1879   -3.0979   17.8156 F       1  UNL1       -0.1685
     35 F           3.8837   -3.4849   19.6973 F       1  UNL1       -0.1685
@<TRIPOS>BOND
     1     2     1    1
     2     2     3    1
     3     3     4    1
     4     4     5    2
     5     5     6    1
     6     6     7    2
     7     7     8    1
     8     8     9    2
     9     9    10    1
    10    10    11    2
    11    11    12    1
    12     5    13    1
    13    13    15    1
    14    15    16   ar
    15    16    17   ar
    16    17    18   ar
    17    18    21    1
    18    21    23    1
    19    23    24    1
    20    24    25    1
    21    25    27    1
    22    27    28    1
    23    28    29    1
    24    29    30    1
    25    25    26    1
    26    18    19   ar
    27    19    20   ar
    28    13    14    1
    29    14    31    1
    30    31    32    1
    31    32    33    1
    32    32    34    1
    33    32    35    1
    34    14     2    1
    35    12     4    1
    36    20    15   ar
    37    12     8    1
    38    26    23    1
    39    21    22    1
