@<TRIPOS>MOLECULE
*****
 35 38 0 0 0
SMALL
GASTEIGER

@<TRIPOS>ATOM
      1 N           0.2906    3.4782   20.4232 N.ar    1  UNL1       -0.2994
      2 C          -0.8422    2.5531   20.7563 C.ar    1  UNL1        0.2039
      3 N          -0.5180    1.2015   20.1921 N.ar    1  UNL1       -0.2135
      4 C           0.8152    1.2914   19.5104 C.ar    1  UNL1        0.0996
      5 C           1.6386    0.2737   18.7781 C.ar    1  UNL1        0.0178
      6 C           2.9617    0.6632   18.1885 C.ar    1  UNL1       -0.0045
      7 C           3.4614    2.0703   18.3314 C.ar    1  UNL1       -0.0013
      8 C           2.6380    3.0879   19.0637 C.ar    1  UNL1        0.0185
      9 C           1.3149    2.6985   19.6532 C.ar    1  UNL1        0.0798
     10 N          -2.0815    2.9157   21.5194 N.am    1  UNL1       -0.2518
     11 C          -3.2922    3.4168   20.7893 C.2     1  UNL1        0.2516
     12 O          -3.2636    3.5551   19.2959 O.2     1  UNL1       -0.2697
     13 H          -2.1003    2.8250   22.4996 H       1  UNL1        0.1580
     14 C          -4.5316    3.7795   21.5525 C.ar    1  UNL1        0.0538
     15 C          -5.7206    4.3395   20.8296 C.ar    1  UNL1        0.0052
     16 C          -6.9600    4.7022   21.5927 C.ar    1  UNL1        0.0104
     17 C          -7.0103    4.5048   23.0789 C.ar    1  UNL1        0.0685
     18 C          -5.8213    3.9448   23.8018 C.ar    1  UNL1        0.0104
     19 C          -4.5819    3.5821   23.0386 C.ar    1  UNL1        0.0052
     20 C          -8.2496    4.8675   23.8421 C.1     1  UNL1        0.1004
     21 N          -9.4890    5.2302   24.6053 N.1     1  UNL1       -0.1908
     22 C           0.3829    4.9285   20.7948 C.3     1  UNL1        0.1113
     23 C          -0.2970    5.9642   19.9493 C.3     1  UNL1        0.0566
     24 C          -0.0889    5.9743   18.4638 C.3     1  UNL1        0.1443
     25 C          -0.7759    4.0243   16.8904 C.3     1  UNL1        0.1741
     26 O          -1.0968    5.3272   17.5609 O.3     1  UNL1       -0.3510
     27 C           3.7852   -0.3545   17.4562 C.3     1  UNL1        0.0992
     28 N           4.9891   -0.9599   18.1150 N.3     1  UNL1       -0.2691
     29 C           6.3655   -0.5888   17.6483 C.3     1  UNL1        0.0899
     30 C           4.8166   -1.9363   19.2406 C.3     1  UNL1        0.0578
     31 C           5.2146   -1.5518   20.6347 C.3     1  UNL1        0.0160
     32 C           5.0421   -2.5282   21.7602 C.3     1  UNL1        0.0014
     33 C           4.4715   -3.8892   21.4915 C.3     1  UNL1        0.0001
     34 C           4.0735   -4.2738   20.0974 C.3     1  UNL1        0.0014
     35 C           4.2460   -3.2973   18.9719 C.3     1  UNL1        0.0160
@<TRIPOS>BOND
     1    25    26    1
     2    26    24    1
     3    24    23    1
     4    23    22    1
     5    22     1    1
     6     1     2   ar
     7     2    10    1
     8    10    11   am
     9    11    12    2
    10    11    14    1
    11    14    15   ar
    12    15    16   ar
    13    16    17   ar
    14    17    20    1
    15    20    21    3
    16    17    18   ar
    17    18    19   ar
    18     2     3   ar
    19     3     4   ar
    20     4     5   ar
    21     5     6   ar
    22     6    27    1
    23    27    28    1
    24    28    29    1
    25    28    30    1
    26    30    31    1
    27    31    32    1
    28    32    33    1
    29    33    34    1
    30    34    35    1
    31     6     7   ar
    32     7     8   ar
    33     8     9   ar
    34     9     1   ar
    35    19    14   ar
    36     9     4   ar
    37    35    30    1
    38    10    13    1
@<TRIPOS>MOLECULE
*****
 35 38 0 0 0
SMALL
GASTEIGER

@<TRIPOS>ATOM
      1 N           0.4721    3.4017   20.3374 N.ar    1  UNL1       -0.2994
      2 C          -0.6473    2.4570   20.6606 C.ar    1  UNL1        0.2039
      3 N          -0.2919    1.1098   20.1049 N.ar    1  UNL1       -0.2135
      4 C           1.0471    1.2219   19.4383 C.ar    1  UNL1        0.0996
      5 C           1.8975    0.2172   18.7191 C.ar    1  UNL1        0.0178
      6 C           3.2200    0.6289   18.1435 C.ar    1  UNL1       -0.0045
      7 C           3.6922    2.0454   18.2871 C.ar    1  UNL1       -0.0013
      8 C           2.8418    3.0501   19.0064 C.ar    1  UNL1        0.0185
      9 C           1.5193    2.6384   19.5820 C.ar    1  UNL1        0.0798
     10 N          -1.9019    2.7994   21.4082 N.am    1  UNL1       -0.2518
     11 C          -3.0830    3.3611   20.6738 C.2     1  UNL1        0.2516
     12 O          -3.0096    3.5805   19.1917 O.2     1  UNL1       -0.2697
     13 H          -1.9501    2.6554   22.3809 H       1  UNL1        0.1580
     14 C          -4.3375    3.7035   21.4214 C.ar    1  UNL1        0.0538
     15 C          -4.4205    3.4587   22.8990 C.ar    1  UNL1        0.0052
     16 C          -5.6751    3.8011   23.6466 C.ar    1  UNL1        0.0104
     17 C          -6.8466    4.3883   22.9166 C.ar    1  UNL1        0.0685
     18 C          -6.7635    4.6331   21.4390 C.ar    1  UNL1        0.0104
     19 C          -5.5090    4.2907   20.6914 C.ar    1  UNL1        0.0052
     20 C          -8.1011    4.7307   23.6642 C.1     1  UNL1        0.1004
     21 N          -9.3557    5.0731   24.4118 N.1     1  UNL1       -0.1908
     22 C           0.5335    4.8547   20.7050 C.3     1  UNL1        0.1113
     23 C           1.1488    5.2735   22.0072 C.3     1  UNL1        0.0566
     24 C           0.6424    4.6967   23.2960 C.3     1  UNL1        0.1443
     25 C          -1.6654    5.8288   23.6733 C.3     1  UNL1        0.1741
     26 O          -0.8335    4.5877   23.5401 O.3     1  UNL1       -0.3510
     27 C           4.0704   -0.3759   17.4242 C.3     1  UNL1        0.0992
     28 N           5.1700   -1.0880   18.1549 N.3     1  UNL1       -0.2691
     29 C           6.6033   -0.7703   17.8473 C.3     1  UNL1        0.0899
     30 C           4.8361   -2.1179   19.1931 C.3     1  UNL1        0.0578
     31 C           4.8476   -1.7485   20.6468 C.3     1  UNL1        0.0160
     32 C           4.5138   -2.7783   21.6850 C.3     1  UNL1        0.0014
     33 C           4.1684   -4.1777   21.2695 C.3     1  UNL1        0.0001
     34 C           4.1569   -4.5471   19.8158 C.3     1  UNL1        0.0014
     35 C           4.4907   -3.5172   18.7776 C.3     1  UNL1        0.0160
@<TRIPOS>BOND
     1    25    26    1
     2    26    24    1
     3    24    23    1
     4    23    22    1
     5    22     1    1
     6     1     2   ar
     7     2    10    1
     8    10    11   am
     9    11    12    2
    10    11    14    1
    11    14    15   ar
    12    15    16   ar
    13    16    17   ar
    14    17    20    1
    15    20    21    3
    16    17    18   ar
    17    18    19   ar
    18     2     3   ar
    19     3     4   ar
    20     4     5   ar
    21     5     6   ar
    22     6    27    1
    23    27    28    1
    24    28    29    1
    25    28    30    1
    26    30    31    1
    27    31    32    1
    28    32    33    1
    29    33    34    1
    30    34    35    1
    31     6     7   ar
    32     7     8   ar
    33     8     9   ar
    34     9     1   ar
    35    19    14   ar
    36     9     4   ar
    37    35    30    1
    38    10    13    1
@<TRIPOS>MOLECULE
*****
 35 38 0 0 0
SMALL
GASTEIGER

@<TRIPOS>ATOM
      1 N          -1.0685    3.7122   19.4563 N.ar    1  UNL1       -0.2994
      2 C          -1.7455    2.8901   20.5126 C.ar    1  UNL1        0.2039
      3 N          -0.8047    1.7960   20.9221 N.ar    1  UNL1       -0.2135
      4 C           0.4537    1.9418   20.1189 C.ar    1  UNL1        0.0996
      5 C           1.7269    1.1492   20.0955 C.ar    1  UNL1        0.0178
      6 C           2.8372    1.5410   19.1661 C.ar    1  UNL1       -0.0045
      7 C           2.6741    2.7253   18.2601 C.ar    1  UNL1       -0.0013
      8 C           1.4009    3.5179   18.2835 C.ar    1  UNL1        0.0185
      9 C           0.2907    3.1261   19.2130 C.ar    1  UNL1        0.0798
     10 N          -3.1217    3.1216   21.0627 N.am    1  UNL1       -0.2518
     11 C          -3.3481    4.1887   22.0922 C.2     1  UNL1        0.2516
     12 O          -2.1985    5.0246   22.5715 O.2     1  UNL1       -0.2697
     13 H          -3.8762    2.5730   20.7482 H       1  UNL1        0.1580
     14 C          -4.7243    4.4202   22.6423 C.ar    1  UNL1        0.0538
     15 C          -4.9878    4.2321   24.1070 C.ar    1  UNL1        0.0052
     16 C          -6.3640    4.4636   24.6572 C.ar    1  UNL1        0.0104
     17 C          -7.4766    4.8830   23.7426 C.ar    1  UNL1        0.0685
     18 C          -7.2130    5.0710   22.2780 C.ar    1  UNL1        0.0104
     19 C          -5.8368    4.8396   21.7279 C.ar    1  UNL1        0.0052
     20 C          -8.8527    5.1145   24.2928 C.1     1  UNL1        0.1004
     21 N         -10.2289    5.3459   24.8430 N.1     1  UNL1       -0.1908
     22 C          -1.6488    4.9101   18.7646 C.3     1  UNL1        0.1113
     23 C          -2.1960    4.7813   17.3740 C.3     1  UNL1        0.0566
     24 C          -3.4487    3.9929   17.1310 C.3     1  UNL1        0.1443
     25 C          -5.7965    3.9021   18.2399 C.3     1  UNL1        0.1741
     26 O          -4.3268    3.6056   18.2838 O.3     1  UNL1       -0.3510
     27 C           4.1105    0.7484   19.1426 C.3     1  UNL1        0.0992
     28 N           4.1106   -0.6552   18.6135 N.3     1  UNL1       -0.2691
     29 C           4.0418   -0.8994   17.1351 C.3     1  UNL1        0.0899
     30 C           4.1794   -1.8146   19.5628 C.3     1  UNL1        0.0578
     31 C           4.1316   -3.2185   19.0368 C.3     1  UNL1        0.0160
     32 C           4.2005   -4.3778   19.9861 C.3     1  UNL1        0.0014
     33 C           4.3172   -4.1332   21.4614 C.3     1  UNL1        0.0001
     34 C           4.3650   -2.7293   21.9874 C.3     1  UNL1        0.0014
     35 C           4.2961   -1.5700   21.0381 C.3     1  UNL1        0.0160
@<TRIPOS>BOND
     1    25    26    1
     2    26    24    1
     3    24    23    1
     4    23    22    1
     5    22     1    1
     6     1     2   ar
     7     2    10    1
     8    10    11   am
     9    11    12    2
    10    11    14    1
    11    14    15   ar
    12    15    16   ar
    13    16    17   ar
    14    17    20    1
    15    20    21    3
    16    17    18   ar
    17    18    19   ar
    18     2     3   ar
    19     3     4   ar
    20     4     5   ar
    21     5     6   ar
    22     6    27    1
    23    27    28    1
    24    28    29    1
    25    28    30    1
    26    30    31    1
    27    31    32    1
    28    32    33    1
    29    33    34    1
    30    34    35    1
    31     6     7   ar
    32     7     8   ar
    33     8     9   ar
    34     9     1   ar
    35    19    14   ar
    36     9     4   ar
    37    35    30    1
    38    10    13    1
@<TRIPOS>MOLECULE
*****
 35 38 0 0 0
SMALL
GASTEIGER

@<TRIPOS>ATOM
      1 N           3.6331   -0.6727   32.0526 N.ar    1  UNL1       -0.2994
      2 C           4.8113   -1.4612   32.5426 C.ar    1  UNL1        0.2039
      3 N           5.3587   -0.7705   33.7564 N.ar    1  UNL1       -0.2135
      4 C           4.5188    0.4447   34.0166 C.ar    1  UNL1        0.0996
      5 C           4.5874    1.5041   35.0763 C.ar    1  UNL1        0.0178
      6 C           3.5894    2.6239   35.0830 C.ar    1  UNL1       -0.0045
      7 C           2.5229    2.6843   34.0300 C.ar    1  UNL1       -0.0013
      8 C           2.4544    1.6250   32.9702 C.ar    1  UNL1        0.0185
      9 C           3.4523    0.5052   32.9636 C.ar    1  UNL1        0.0798
     10 N           5.3479   -2.7193   31.9269 N.am    1  UNL1       -0.2518
     11 C           6.2177   -2.6456   30.7070 C.2     1  UNL1        0.2516
     12 O           6.5509   -1.3136   30.1028 O.2     1  UNL1       -0.2697
     13 H           5.1293   -3.5935   32.3234 H       1  UNL1        0.1580
     14 C           6.7543   -3.9037   30.0913 C.ar    1  UNL1        0.0538
     15 C           7.4315   -4.9297   30.9509 C.ar    1  UNL1        0.0052
     16 C           7.9681   -6.1879   30.3352 C.ar    1  UNL1        0.0104
     17 C           7.8275   -6.4200   28.8599 C.ar    1  UNL1        0.0685
     18 C           7.1503   -5.3941   28.0004 C.ar    1  UNL1        0.0104
     19 C           6.6137   -4.1359   28.6161 C.ar    1  UNL1        0.0052
     20 C           8.3641   -7.6782   28.2442 C.1     1  UNL1        0.1004
     21 N           8.9007   -8.9364   27.6285 N.1     1  UNL1       -0.1908
     22 C           2.7846   -1.0040   30.8608 C.3     1  UNL1        0.1113
     23 C           3.1549   -0.4764   29.5065 C.3     1  UNL1        0.0566
     24 C           2.1291   -0.4309   28.4130 C.3     1  UNL1        0.1443
     25 C           0.1655    1.0790   29.1967 C.3     1  UNL1        0.1741
     26 O           1.2784    0.7913   28.2330 O.3     1  UNL1       -0.3510
     27 C           3.6580    3.6833   36.1428 C.3     1  UNL1        0.0992
     28 N           3.7835    3.2935   37.5858 N.3     1  UNL1       -0.2691
     29 C           4.9856    3.7190   38.3757 C.3     1  UNL1        0.0899
     30 C           2.7070    2.4783   38.2389 C.3     1  UNL1        0.0578
     31 C           2.9602    1.0408   38.5845 C.3     1  UNL1        0.0160
     32 C           1.8837    0.2256   39.2376 C.3     1  UNL1        0.0014
     33 C           0.5540    0.8479   39.5451 C.3     1  UNL1        0.0001
     34 C           0.3007    2.2854   39.1995 C.3     1  UNL1        0.0014
     35 C           1.3773    3.1006   38.5464 C.3     1  UNL1        0.0160
@<TRIPOS>BOND
     1    25    26    1
     2    26    24    1
     3    24    23    1
     4    23    22    1
     5    22     1    1
     6     1     2   ar
     7     2    10    1
     8    10    11   am
     9    11    12    2
    10    11    14    1
    11    14    15   ar
    12    15    16   ar
    13    16    17   ar
    14    17    20    1
    15    20    21    3
    16    17    18   ar
    17    18    19   ar
    18     2     3   ar
    19     3     4   ar
    20     4     5   ar
    21     5     6   ar
    22     6    27    1
    23    27    28    1
    24    28    29    1
    25    28    30    1
    26    30    31    1
    27    31    32    1
    28    32    33    1
    29    33    34    1
    30    34    35    1
    31     6     7   ar
    32     7     8   ar
    33     8     9   ar
    34     9     1   ar
    35    19    14   ar
    36     9     4   ar
    37    35    30    1
    38    10    13    1
@<TRIPOS>MOLECULE
*****
 35 38 0 0 0
SMALL
GASTEIGER

@<TRIPOS>ATOM
      1 N         -15.6698   -0.7224   18.8799 N.ar    1  UNL1       -0.2994
      2 C         -16.6937   -1.5978   19.5397 C.ar    1  UNL1        0.2039
      3 N         -17.4985   -0.7453   20.4754 N.ar    1  UNL1       -0.2135
      4 C         -16.9720    0.6569   20.3939 C.ar    1  UNL1        0.0996
      5 C         -17.3757    1.9227   21.0901 C.ar    1  UNL1        0.0178
      6 C         -16.6493    3.2026   20.8002 C.ar    1  UNL1       -0.0045
      7 C         -15.5191    3.2167   19.8141 C.ar    1  UNL1       -0.0013
      8 C         -15.1154    1.9509   19.1178 C.ar    1  UNL1        0.0185
      9 C         -15.8418    0.6710   19.4077 C.ar    1  UNL1        0.0798
     10 N         -16.8801   -3.0676   19.3051 N.am    1  UNL1       -0.2518
     11 C         -15.8865   -4.0469   19.8560 C.2     1  UNL1        0.2516
     12 O         -14.7064   -3.5565   20.6416 O.2     1  UNL1       -0.2697
     13 H         -17.6545   -3.3894   18.7895 H       1  UNL1        0.1580
     14 C         -16.0728   -5.5167   19.6214 C.ar    1  UNL1        0.0538
     15 C         -14.8880   -6.3828   19.3111 C.ar    1  UNL1        0.0052
     16 C         -15.0744   -7.8526   19.0765 C.ar    1  UNL1        0.0104
     17 C         -16.4455   -8.4562   19.1521 C.ar    1  UNL1        0.0685
     18 C         -17.6302   -7.5901   19.4624 C.ar    1  UNL1        0.0104
     19 C         -17.4439   -6.1203   19.6970 C.ar    1  UNL1        0.0052
     20 C         -16.6319   -9.9260   18.9175 C.1     1  UNL1        0.1004
     21 N         -16.8182  -11.3958   18.6829 N.1     1  UNL1       -0.1908
     22 C         -14.6525   -1.1632   17.8695 C.3     1  UNL1        0.1113
     23 C         -13.2274   -1.3783   18.2847 C.3     1  UNL1        0.0566
     24 C         -12.5476   -2.6816   17.9857 C.3     1  UNL1        0.1443
     25 C         -11.5182   -4.8154   19.0520 C.3     1  UNL1        0.1741
     26 O         -11.6690   -3.3234   19.0182 O.3     1  UNL1       -0.3510
     27 C         -17.0530    4.4684   21.4965 C.3     1  UNL1        0.0992
     28 N         -17.0881    4.5216   22.9951 N.3     1  UNL1       -0.2691
     29 C         -18.3932    4.3779   23.7203 C.3     1  UNL1        0.0899
     30 C         -15.8180    4.7186   23.7686 C.3     1  UNL1        0.0578
     31 C         -15.8595    4.8251   25.2642 C.3     1  UNL1        0.0160
     32 C         -14.5894    5.0221   26.0375 C.3     1  UNL1        0.0014
     33 C         -13.2779    5.1126   25.3153 C.3     1  UNL1        0.0001
     34 C         -13.2364    5.0062   23.8197 C.3     1  UNL1        0.0014
     35 C         -14.5064    4.8092   23.0463 C.3     1  UNL1        0.0160
@<TRIPOS>BOND
     1    25    26    1
     2    26    24    1
     3    24    23    1
     4    23    22    1
     5    22     1    1
     6     1     2   ar
     7     2    10    1
     8    10    11   am
     9    11    12    2
    10    11    14    1
    11    14    15   ar
    12    15    16   ar
    13    16    17   ar
    14    17    20    1
    15    20    21    3
    16    17    18   ar
    17    18    19   ar
    18     2     3   ar
    19     3     4   ar
    20     4     5   ar
    21     5     6   ar
    22     6    27    1
    23    27    28    1
    24    28    29    1
    25    28    30    1
    26    30    31    1
    27    31    32    1
    28    32    33    1
    29    33    34    1
    30    34    35    1
    31     6     7   ar
    32     7     8   ar
    33     8     9   ar
    34     9     1   ar
    35    19    14   ar
    36     9     4   ar
    37    35    30    1
    38    10    13    1
@<TRIPOS>MOLECULE
*****
 35 38 0 0 0
SMALL
GASTEIGER

@<TRIPOS>ATOM
      1 N           3.8151    0.0778   28.6935 N.ar    1  UNL1       -0.2994
      2 C           4.8756   -0.2451   29.7040 C.ar    1  UNL1        0.2039
      3 N           5.8958   -1.1223   29.0411 N.ar    1  UNL1       -0.2135
      4 C           5.4660   -1.3416   27.6208 C.ar    1  UNL1        0.0996
      5 C           6.0794   -2.1208   26.4955 C.ar    1  UNL1        0.0178
      6 C           5.4069   -2.1583   25.1552 C.ar    1  UNL1       -0.0045
      7 C           4.1209   -1.4166   24.9404 C.ar    1  UNL1       -0.0013
      8 C           3.5075   -0.6374   26.0658 C.ar    1  UNL1        0.0185
      9 C           4.1800   -0.5999   27.4060 C.ar    1  UNL1        0.0798
     10 N           4.9097    0.2264   31.1276 N.am    1  UNL1       -0.2518
     11 C           4.0976   -0.4809   32.1716 C.2     1  UNL1        0.2516
     12 O           3.2512   -1.6598   31.7922 O.2     1  UNL1       -0.2697
     13 H           5.4651    1.0002   31.3767 H       1  UNL1        0.1580
     14 C           4.1317   -0.0094   33.5952 C.ar    1  UNL1        0.0538
     15 C           4.8155   -0.8366   34.6431 C.ar    1  UNL1        0.0052
     16 C           4.8497   -0.3651   36.0666 C.ar    1  UNL1        0.0104
     17 C           4.2000    0.9337   36.4423 C.ar    1  UNL1        0.0685
     18 C           3.5162    1.7609   35.3944 C.ar    1  UNL1        0.0104
     19 C           3.4820    1.2894   33.9708 C.ar    1  UNL1        0.0052
     20 C           4.2341    1.4053   37.8658 C.1     1  UNL1        0.1004
     21 N           4.2682    1.8768   39.2894 N.1     1  UNL1       -0.1908
     22 C           2.6027    0.9289   28.9290 C.3     1  UNL1        0.1113
     23 C           1.3975    0.3466   29.6059 C.3     1  UNL1        0.0566
     24 C           0.1952    1.2050   29.8660 C.3     1  UNL1        0.1443
     25 C          -1.4394   -0.5454   28.8591 C.3     1  UNL1        0.1741
     26 O          -1.1812    0.6164   29.7721 O.3     1  UNL1       -0.3510
     27 C           6.0203   -2.9376   24.0298 C.3     1  UNL1        0.0992
     28 N           6.2447   -2.2827   22.6991 N.3     1  UNL1       -0.2691
     29 C           7.3309   -1.2607   22.5398 C.3     1  UNL1        0.0899
     30 C           5.3827   -2.6499   21.5276 C.3     1  UNL1        0.0578
     31 C           4.1326   -1.8714   21.2430 C.3     1  UNL1        0.0160
     32 C           3.2707   -2.2386   20.0716 C.3     1  UNL1        0.0014
     33 C           3.6589   -3.3844   19.1848 C.3     1  UNL1        0.0001
     34 C           4.9090   -4.1629   19.4694 C.3     1  UNL1        0.0014
     35 C           5.7709   -3.7957   20.6408 C.3     1  UNL1        0.0160
@<TRIPOS>BOND
     1    25    26    1
     2    26    24    1
     3    24    23    1
     4    23    22    1
     5    22     1    1
     6     1     2   ar
     7     2    10    1
     8    10    11   am
     9    11    12    2
    10    11    14    1
    11    14    15   ar
    12    15    16   ar
    13    16    17   ar
    14    17    20    1
    15    20    21    3
    16    17    18   ar
    17    18    19   ar
    18     2     3   ar
    19     3     4   ar
    20     4     5   ar
    21     5     6   ar
    22     6    27    1
    23    27    28    1
    24    28    29    1
    25    28    30    1
    26    30    31    1
    27    31    32    1
    28    32    33    1
    29    33    34    1
    30    34    35    1
    31     6     7   ar
    32     7     8   ar
    33     8     9   ar
    34     9     1   ar
    35    19    14   ar
    36     9     4   ar
    37    35    30    1
    38    10    13    1
@<TRIPOS>MOLECULE
*****
 35 38 0 0 0
SMALL
GASTEIGER

@<TRIPOS>ATOM
      1 N           0.5088    2.5019   24.7115 N.ar    1  UNL1       -0.2994
      2 C           1.5619    1.7819   25.5004 C.ar    1  UNL1        0.2039
      3 N           2.2727    0.8406   24.5737 N.ar    1  UNL1       -0.2135
      4 C           1.6588    0.9789   23.2121 C.ar    1  UNL1        0.0996
      5 C           1.9517    0.3025   21.9057 C.ar    1  UNL1        0.0178
      6 C           1.1543    0.6529   20.6845 C.ar    1  UNL1       -0.0045
      7 C           0.0641    1.6796   20.7697 C.ar    1  UNL1       -0.0013
      8 C          -0.2287    2.3560   22.0760 C.ar    1  UNL1        0.0185
      9 C           0.5686    2.0057   23.2973 C.ar    1  UNL1        0.0798
     10 N           1.8532    1.9702   26.9598 N.am    1  UNL1       -0.2518
     11 C           0.9187    1.4081   27.9897 C.2     1  UNL1        0.2516
     12 O          -0.3072    0.6578   27.5603 O.2     1  UNL1       -0.2697
     13 H           2.6578    2.4626   27.2417 H       1  UNL1        0.1580
     14 C           1.2100    1.5963   29.4491 C.ar    1  UNL1        0.0538
     15 C           0.5394    2.7006   30.2113 C.ar    1  UNL1        0.0052
     16 C           0.8307    2.8889   31.6707 C.ar    1  UNL1        0.0104
     17 C           1.7925    1.9728   32.3678 C.ar    1  UNL1        0.0685
     18 C           2.4630    0.8686   31.6055 C.ar    1  UNL1        0.0104
     19 C           2.1717    0.6803   30.1461 C.ar    1  UNL1        0.0052
     20 C           2.0838    2.1610   33.8271 C.1     1  UNL1        0.1004
     21 N           2.3750    2.3492   35.2865 N.1     1  UNL1       -0.1908
     22 C          -0.4381    3.5366   25.2435 C.3     1  UNL1        0.1113
     23 C          -1.8394    3.1510   25.6143 C.3     1  UNL1        0.0566
     24 C          -2.9996    3.7095   24.8449 C.3     1  UNL1        0.1443
     25 C          -4.4275    4.4330   26.8912 C.3     1  UNL1        0.1741
     26 O          -3.9324    4.6859   25.4980 O.3     1  UNL1       -0.3510
     27 C           1.4472   -0.0235   19.3780 C.3     1  UNL1        0.0992
     28 N           2.8550   -0.0842   18.8639 N.3     1  UNL1       -0.2691
     29 C           3.5164    1.1561   18.3404 C.3     1  UNL1        0.0899
     30 C           3.6014   -1.3853   18.8733 C.3     1  UNL1        0.0578
     31 C           4.8564   -1.5359   18.0656 C.3     1  UNL1        0.0160
     32 C           5.6027   -2.8370   18.0751 C.3     1  UNL1        0.0014
     33 C           5.0941   -3.9875   18.8921 C.3     1  UNL1        0.0001
     34 C           3.8391   -3.8369   19.6998 C.3     1  UNL1        0.0014
     35 C           3.0928   -2.5359   19.6904 C.3     1  UNL1        0.0160
@<TRIPOS>BOND
     1    25    26    1
     2    26    24    1
     3    24    23    1
     4    23    22    1
     5    22     1    1
     6     1     2   ar
     7     2    10    1
     8    10    11   am
     9    11    12    2
    10    11    14    1
    11    14    15   ar
    12    15    16   ar
    13    16    17   ar
    14    17    20    1
    15    20    21    3
    16    17    18   ar
    17    18    19   ar
    18     2     3   ar
    19     3     4   ar
    20     4     5   ar
    21     5     6   ar
    22     6    27    1
    23    27    28    1
    24    28    29    1
    25    28    30    1
    26    30    31    1
    27    31    32    1
    28    32    33    1
    29    33    34    1
    30    34    35    1
    31     6     7   ar
    32     7     8   ar
    33     8     9   ar
    34     9     1   ar
    35    19    14   ar
    36     9     4   ar
    37    35    30    1
    38    10    13    1
@<TRIPOS>MOLECULE
*****
 35 38 0 0 0
SMALL
GASTEIGER

@<TRIPOS>ATOM
      1 N           2.9201    0.6144   25.3607 N.ar    1  UNL1       -0.2994
      2 C           3.5827    0.0436   26.5794 C.ar    1  UNL1        0.2039
      3 N           4.3158   -1.1991   26.1692 N.ar    1  UNL1       -0.2135
      4 C           4.1063   -1.3964   24.6970 C.ar    1  UNL1        0.0996
      5 C           4.5895   -2.4517   23.7470 C.ar    1  UNL1        0.0178
      6 C           4.2101   -2.3863   22.2973 C.ar    1  UNL1       -0.0045
      7 C           3.3476   -1.2655   21.7976 C.ar    1  UNL1       -0.0013
      8 C           2.8643   -0.2101   22.7476 C.ar    1  UNL1        0.0185
      9 C           3.2437   -0.2755   24.1973 C.ar    1  UNL1        0.0798
     10 N           3.5227    0.6151   27.9649 N.am    1  UNL1       -0.2518
     11 C           2.5418    0.0690   28.9597 C.2     1  UNL1        0.2516
     12 O           1.6208   -1.0487   28.5689 O.2     1  UNL1       -0.2697
     13 H           4.1272    1.3487   28.2214 H       1  UNL1        0.1580
     14 C           2.4818    0.6406   30.3452 C.ar    1  UNL1        0.0538
     15 C           1.5431    1.7700   30.6506 C.ar    1  UNL1        0.0052
     16 C           1.4832    2.3416   32.0362 C.ar    1  UNL1        0.0104
     17 C           2.3619    1.7837   33.1163 C.ar    1  UNL1        0.0685
     18 C           3.3005    0.6543   32.8109 C.ar    1  UNL1        0.0104
     19 C           3.3605    0.0827   31.4253 C.ar    1  UNL1        0.0052
     20 C           2.3019    2.3552   34.5018 C.1     1  UNL1        0.1004
     21 N           2.2419    2.9267   35.8874 N.1     1  UNL1       -0.1908
     22 C           2.0812    1.8570   25.3136 C.3     1  UNL1        0.1113
     23 C           0.6209    1.7640   24.9840 C.3     1  UNL1        0.0566
     24 C          -0.3266    1.1175   25.9506 C.3     1  UNL1        0.1443
     25 C          -1.2214    0.8327   28.3731 C.3     1  UNL1        0.1741
     26 O          -0.3108    1.5162   27.3966 O.3     1  UNL1       -0.3510
     27 C           4.6934   -3.4417   21.3471 C.3     1  UNL1        0.0992
     28 N           4.3253   -3.3687   19.8948 N.3     1  UNL1       -0.2691
     29 C           3.3418   -4.3447   19.3204 C.3     1  UNL1        0.0899
     30 C           4.9409   -2.3197   19.0169 C.3     1  UNL1        0.0578
     31 C           4.0758   -1.5074   18.0994 C.3     1  UNL1        0.0160
     32 C           4.6914   -0.4585   17.2215 C.3     1  UNL1        0.0014
     33 C           6.1721   -0.2217   17.2612 C.3     1  UNL1        0.0001
     34 C           7.0372   -1.0339   18.1788 C.3     1  UNL1        0.0014
     35 C           6.4216   -2.0829   19.0566 C.3     1  UNL1        0.0160
@<TRIPOS>BOND
     1    25    26    1
     2    26    24    1
     3    24    23    1
     4    23    22    1
     5    22     1    1
     6     1     2   ar
     7     2    10    1
     8    10    11   am
     9    11    12    2
    10    11    14    1
    11    14    15   ar
    12    15    16   ar
    13    16    17   ar
    14    17    20    1
    15    20    21    3
    16    17    18   ar
    17    18    19   ar
    18     2     3   ar
    19     3     4   ar
    20     4     5   ar
    21     5     6   ar
    22     6    27    1
    23    27    28    1
    24    28    29    1
    25    28    30    1
    26    30    31    1
    27    31    32    1
    28    32    33    1
    29    33    34    1
    30    34    35    1
    31     6     7   ar
    32     7     8   ar
    33     8     9   ar
    34     9     1   ar
    35    19    14   ar
    36     9     4   ar
    37    35    30    1
    38    10    13    1
@<TRIPOS>MOLECULE
*****
 35 38 0 0 0
SMALL
GASTEIGER

@<TRIPOS>ATOM
      1 N           3.0910    0.2841   31.5069 N.ar    1  UNL1       -0.2994
      2 C           2.6989    1.7197   31.3189 C.ar    1  UNL1        0.2039
      3 N           3.0013    2.4532   32.5919 N.ar    1  UNL1       -0.2135
      4 C           3.5802    1.4710   33.5666 C.ar    1  UNL1        0.0996
      5 C           4.0640    1.6242   34.9781 C.ar    1  UNL1        0.0178
      6 C           4.6033    0.4367   35.7191 C.ar    1  UNL1       -0.0045
      7 C           4.6588   -0.9039   35.0485 C.ar    1  UNL1       -0.0013
      8 C           4.1750   -1.0571   33.6370 C.ar    1  UNL1        0.0185
      9 C           3.6357    0.1304   32.8960 C.ar    1  UNL1        0.0798
     10 N           2.1082    2.3169   30.0761 N.am    1  UNL1       -0.2518
     11 C           0.7172    1.9469   29.6543 C.2     1  UNL1        0.2516
     12 O          -0.0833    0.9798   30.4753 O.2     1  UNL1       -0.2697
     13 H           2.6336    2.9516   29.5373 H       1  UNL1        0.1580
     14 C           0.1265    2.5441   28.4116 C.ar    1  UNL1        0.0538
     15 C           0.1467    4.0305   28.2110 C.ar    1  UNL1        0.0052
     16 C          -0.4440    4.6277   26.9682 C.ar    1  UNL1        0.0104
     17 C          -1.0549    3.7385   25.9260 C.ar    1  UNL1        0.0685
     18 C          -1.0752    2.2521   26.1267 C.ar    1  UNL1        0.0104
     19 C          -0.4845    1.6549   27.3694 C.ar    1  UNL1        0.0052
     20 C          -1.6456    4.3356   24.6833 C.1     1  UNL1        0.1004
     21 N          -2.2363    4.9328   23.4405 N.1     1  UNL1       -0.1908
     22 C           2.9612   -0.8064   30.4851 C.3     1  UNL1        0.1113
     23 C           3.5735   -0.6378   29.1263 C.3     1  UNL1        0.0566
     24 C           2.7062   -0.6744   27.9030 C.3     1  UNL1        0.1443
     25 C           3.2767   -0.0648   25.4427 C.3     1  UNL1        0.1741
     26 O           2.8825    0.3561   26.8274 O.3     1  UNL1       -0.3510
     27 C           5.0872    0.5898   37.1307 C.3     1  UNL1        0.0992
     28 N           4.5691    1.7096   37.9837 N.3     1  UNL1       -0.2691
     29 C           5.4787    2.8356   38.3768 C.3     1  UNL1        0.0899
     30 C           3.1414    1.7032   38.4438 C.3     1  UNL1        0.0578
     31 C           2.2992    2.9352   38.2926 C.3     1  UNL1        0.0160
     32 C           0.8715    2.9288   38.7526 C.3     1  UNL1        0.0014
     33 C           0.2860    1.6904   39.3638 C.3     1  UNL1        0.0001
     34 C           1.1282    0.4584   39.5151 C.3     1  UNL1        0.0014
     35 C           2.5559    0.4648   39.0550 C.3     1  UNL1        0.0160
@<TRIPOS>BOND
     1    25    26    1
     2    26    24    1
     3    24    23    1
     4    23    22    1
     5    22     1    1
     6     1     2   ar
     7     2    10    1
     8    10    11   am
     9    11    12    2
    10    11    14    1
    11    14    15   ar
    12    15    16   ar
    13    16    17   ar
    14    17    20    1
    15    20    21    3
    16    17    18   ar
    17    18    19   ar
    18     2     3   ar
    19     3     4   ar
    20     4     5   ar
    21     5     6   ar
    22     6    27    1
    23    27    28    1
    24    28    29    1
    25    28    30    1
    26    30    31    1
    27    31    32    1
    28    32    33    1
    29    33    34    1
    30    34    35    1
    31     6     7   ar
    32     7     8   ar
    33     8     9   ar
    34     9     1   ar
    35    19    14   ar
    36     9     4   ar
    37    35    30    1
    38    10    13    1
