@<TRIPOS>MOLECULE
*****
 31 33 0 0 0
SMALL
GASTEIGER

@<TRIPOS>ATOM
      1 C           6.1359   -2.4193   19.2820 C.ar    1  UNL1        0.0942
      2 C           7.5335   -1.9572   19.5704 C.ar    1  UNL1        0.1078
      3 N           8.4834   -2.8551   20.3062 N.ar    1  UNL1       -0.2119
      4 C           8.0357   -4.2151   20.7536 C.ar    1  UNL1        0.2206
      5 N           6.6381   -4.6771   20.4652 N.ar    1  UNL1       -0.2094
      6 C           5.6882   -3.7792   19.7293 C.ar    1  UNL1        0.1613
      7 O           4.8951   -1.7654   17.0950 O.2     1  UNL1       -0.2700
      8 C           5.1859   -1.5214   18.5462 C.2     1  UNL1        0.2488
      9 N           4.5268   -0.3795   19.2616 N.am    1  UNL1       -0.3008
     10 H           4.7177   -0.2194   20.2140 H       1  UNL1        0.1497
     11 C           3.5769    0.5184   18.5258 C.3     1  UNL1        0.0898
     12 C           2.2251    0.8152   19.1043 C.3     1  UNL1        0.0246
     13 C           1.5728   -0.1686   20.0297 C.3     1  UNL1        0.0338
     14 C           0.2211    0.1283   20.6082 C.3     1  UNL1        0.1422
     15 O          -0.4784    1.4090   20.2611 O.3     1  UNL1       -0.3538
     16 C           0.1738    2.3928   19.3356 C.3     1  UNL1        0.1422
     17 C           1.5256    2.0959   18.7572 C.3     1  UNL1        0.0338
     18 C           4.2905   -4.2412   19.4409 C.3     1  UNL1        0.4351
     19 F           2.8929   -4.7033   19.1525 F       1  UNL1       -0.1644
     20 F           3.7948   -3.4911   20.6416 F       1  UNL1       -0.1644
     21 F           4.7863   -4.9913   18.2403 F       1  UNL1       -0.1644
     22 N           8.9857   -5.1130   21.4894 N.pl3   1  UNL1       -0.2825
     23 H           9.8627   -5.3285   21.0975 H       1  UNL1        0.1551
     24 C           8.5993   -5.6825   22.8222 C.ar    1  UNL1        0.0514
     25 C           8.9612   -7.0968   23.1668 C.ar    1  UNL1        0.0156
     26 C           8.5748   -7.6663   24.4996 C.ar    1  UNL1        0.0135
     27 C           7.8266   -6.8216   25.4878 C.ar    1  UNL1        0.0683
     28 CL          7.4402   -7.3911   26.8206 Cl      1  UNL1       -0.0814
     29 C           7.4647   -5.4073   25.1431 C.ar    1  UNL1        0.0694
     30 CL          6.7164   -4.5625   26.1313 Cl      1  UNL1       -0.0813
     31 C           7.8510   -4.8378   23.8103 C.ar    1  UNL1        0.0269
@<TRIPOS>BOND
     1     7     8    2
     2     8     9   am
     3     9    11    1
     4    11    12    1
     5    12    13    1
     6    13    14    1
     7    14    15    1
     8    15    16    1
     9    16    17    1
    10     8     1    1
    11     1     2   ar
    12     2     3   ar
    13     3     4   ar
    14     4    22    1
    15    22    24    1
    16    24    25   ar
    17    25    26   ar
    18    26    27   ar
    19    27    28    1
    20    27    29   ar
    21    29    30    1
    22    29    31   ar
    23     4     5   ar
    24     5     6   ar
    25     6    18    1
    26    18    19    1
    27    18    20    1
    28    18    21    1
    29    17    12    1
    30     6     1   ar
    31    31    24   ar
    32     9    10    1
    33    22    23    1
@<TRIPOS>MOLECULE
*****
 31 33 0 0 0
SMALL
GASTEIGER

@<TRIPOS>ATOM
      1 C           6.4312   -2.4335   19.3328 C.ar    1  UNL1        0.0942
      2 C           7.8165   -2.1204   19.8155 C.ar    1  UNL1        0.1078
      3 N           8.4948   -3.0344   20.7923 N.ar    1  UNL1       -0.2119
      4 C           7.7880   -4.2617   21.2865 C.ar    1  UNL1        0.2206
      5 N           6.4027   -4.5749   20.8038 N.ar    1  UNL1       -0.2094
      6 C           5.7243   -3.6608   19.8269 C.ar    1  UNL1        0.1613
      7 O           6.3788   -1.2527   17.0191 O.2     1  UNL1       -0.2700
      8 C           5.7528   -1.5195   18.3559 C.2     1  UNL1        0.2488
      9 N           4.4484   -0.8721   18.7159 N.am    1  UNL1       -0.3008
     10 H           4.0375   -1.0472   19.5932 H       1  UNL1        0.1497
     11 C           3.7700    0.0419   17.7390 C.3     1  UNL1        0.0898
     12 C           2.8196    1.0931   18.2310 C.3     1  UNL1        0.0246
     13 C           3.2874    2.5085   18.3970 C.3     1  UNL1        0.0338
     14 C           2.3370    3.5596   18.8889 C.3     1  UNL1        0.1422
     15 O           0.9189    3.1952   19.2148 O.3     1  UNL1       -0.3538
     16 C           0.4511    1.7798   19.0487 C.3     1  UNL1        0.1422
     17 C           1.4015    0.7287   18.5568 C.3     1  UNL1        0.0338
     18 C           4.3391   -3.9740   19.3442 C.3     1  UNL1        0.4351
     19 F           2.9539   -4.2871   18.8614 F       1  UNL1       -0.1644
     20 F           4.9142   -4.6888   18.1574 F       1  UNL1       -0.1644
     21 F           3.7640   -3.2592   20.5309 F       1  UNL1       -0.1644
     22 N           8.4664   -5.1758   22.2633 N.pl3   1  UNL1       -0.2825
     23 H           9.2619   -5.6867   21.9887 H       1  UNL1        0.1551
     24 C           7.9327   -5.3115   23.6586 C.ar    1  UNL1        0.0514
     25 C           7.3235   -4.1263   24.3472 C.ar    1  UNL1        0.0156
     26 C           6.7899   -4.2620   25.7424 C.ar    1  UNL1        0.0135
     27 C           6.8655   -5.5829   26.4492 C.ar    1  UNL1        0.0683
     28 CL          6.3319   -5.7186   27.8444 Cl      1  UNL1       -0.0814
     29 C           7.4747   -6.7681   25.7606 C.ar    1  UNL1        0.0694
     30 CL          7.5503   -8.0891   26.4673 Cl      1  UNL1       -0.0813
     31 C           8.0083   -6.6324   24.3653 C.ar    1  UNL1        0.0269
@<TRIPOS>BOND
     1     7     8    2
     2     8     9   am
     3     9    11    1
     4    11    12    1
     5    12    13    1
     6    13    14    1
     7    14    15    1
     8    15    16    1
     9    16    17    1
    10     8     1    1
    11     1     2   ar
    12     2     3   ar
    13     3     4   ar
    14     4    22    1
    15    22    24    1
    16    24    25   ar
    17    25    26   ar
    18    26    27   ar
    19    27    28    1
    20    27    29   ar
    21    29    30    1
    22    29    31   ar
    23     4     5   ar
    24     5     6   ar
    25     6    18    1
    26    18    19    1
    27    18    20    1
    28    18    21    1
    29    17    12    1
    30     6     1   ar
    31    31    24   ar
    32     9    10    1
    33    22    23    1
@<TRIPOS>MOLECULE
*****
 31 33 0 0 0
SMALL
GASTEIGER

@<TRIPOS>ATOM
      1 C          -8.8860  -18.4659   21.0563 C.ar    1  UNL1        0.0942
      2 C          -8.6410  -19.3201   19.8478 C.ar    1  UNL1        0.1078
      3 N          -7.3271  -20.0241   19.6808 N.ar    1  UNL1       -0.2119
      4 C          -6.2581  -19.8741   20.7224 C.ar    1  UNL1        0.2206
      5 N          -6.5031  -19.0200   21.9309 N.ar    1  UNL1       -0.2094
      6 C          -7.8170  -18.3159   22.0978 C.ar    1  UNL1        0.1613
      7 O         -10.3902  -16.3853   20.6587 O.2     1  UNL1       -0.2700
      8 C         -10.1999  -17.7619   21.2232 C.2     1  UNL1        0.2488
      9 N         -11.3235  -18.4344   21.9548 N.am    1  UNL1       -0.3008
     10 H         -11.1986  -19.3379   22.3254 H       1  UNL1        0.1497
     11 C         -12.6374  -17.7303   22.1218 C.3     1  UNL1        0.0898
     12 C         -13.5440  -18.0942   23.2602 C.3     1  UNL1        0.0246
     13 C         -13.0012  -18.1706   24.6564 C.3     1  UNL1        0.0338
     14 C         -13.9077  -18.5345   25.7946 C.3     1  UNL1        0.1422
     15 O         -15.3572  -18.8219   25.5367 O.3     1  UNL1       -0.3538
     16 C         -15.9000  -18.7455   24.1405 C.3     1  UNL1        0.1422
     17 C         -14.9934  -18.3816   23.0022 C.3     1  UNL1        0.0338
     18 C          -8.0620  -17.4618   23.3063 C.3     1  UNL1        0.4351
     19 F          -8.3070  -16.6076   24.5148 F       1  UNL1       -0.1644
     20 F          -7.3231  -16.3298   22.6561 F       1  UNL1       -0.1644
     21 F          -8.8009  -18.5937   23.9565 F       1  UNL1       -0.1644
     22 N          -4.9442  -20.5782   20.5554 N.pl3   1  UNL1       -0.2825
     23 H          -4.9146  -21.5613   20.5118 H       1  UNL1        0.1551
     24 C          -3.6754  -19.7844   20.4549 C.ar    1  UNL1        0.0514
     25 C          -2.7334  -19.7252   21.6207 C.ar    1  UNL1        0.0156
     26 C          -1.4646  -18.9315   21.5202 C.ar    1  UNL1        0.0135
     27 C          -1.1378  -18.1969   20.2539 C.ar    1  UNL1        0.0683
     28 CL          0.1310  -17.4032   20.1534 Cl      1  UNL1       -0.0814
     29 C          -2.0798  -18.2561   19.0881 C.ar    1  UNL1        0.0694
     30 CL         -1.7530  -17.5215   17.8217 Cl      1  UNL1       -0.0813
     31 C          -3.3486  -19.0499   19.1886 C.ar    1  UNL1        0.0269
@<TRIPOS>BOND
     1     7     8    2
     2     8     9   am
     3     9    11    1
     4    11    12    1
     5    12    13    1
     6    13    14    1
     7    14    15    1
     8    15    16    1
     9    16    17    1
    10     8     1    1
    11     1     2   ar
    12     2     3   ar
    13     3     4   ar
    14     4    22    1
    15    22    24    1
    16    24    25   ar
    17    25    26   ar
    18    26    27   ar
    19    27    28    1
    20    27    29   ar
    21    29    30    1
    22    29    31   ar
    23     4     5   ar
    24     5     6   ar
    25     6    18    1
    26    18    19    1
    27    18    20    1
    28    18    21    1
    29    17    12    1
    30     6     1   ar
    31    31    24   ar
    32     9    10    1
    33    22    23    1
@<TRIPOS>MOLECULE
*****
 31 33 0 0 0
SMALL
GASTEIGER

@<TRIPOS>ATOM
      1 C          -9.2668  -19.5064   21.2522 C.ar    1  UNL1        0.0942
      2 C          -8.7239  -19.6411   19.8604 C.ar    1  UNL1        0.1078
      3 N          -7.2854  -20.0096   19.6489 N.ar    1  UNL1       -0.2119
      4 C          -6.3897  -20.2435   20.8293 C.ar    1  UNL1        0.2206
      5 N          -6.9327  -20.1088   22.2211 N.ar    1  UNL1       -0.2094
      6 C          -8.3713  -19.7402   22.4325 C.ar    1  UNL1        0.1613
      7 O         -11.7685  -20.1936   21.3917 O.2     1  UNL1       -0.2700
      8 C         -10.7054  -19.1378   21.4636 C.2     1  UNL1        0.2488
      9 N         -11.0809  -17.7135   21.7471 N.am    1  UNL1       -0.3008
     10 H         -10.3831  -17.0205   21.7943 H       1  UNL1        0.1497
     11 C         -12.5194  -17.3449   21.9586 C.3     1  UNL1        0.0898
     12 C         -13.2519  -17.8454   23.1681 C.3     1  UNL1        0.0246
     13 C         -14.7399  -18.0287   23.1213 C.3     1  UNL1        0.0338
     14 C         -15.4723  -18.5292   24.3309 C.3     1  UNL1        0.1422
     15 O         -14.7167  -18.8464   25.5872 O.3     1  UNL1       -0.3538
     16 C         -13.2287  -18.6631   25.6341 C.3     1  UNL1        0.1422
     17 C         -12.4963  -18.1626   24.4245 C.3     1  UNL1        0.0338
     18 C          -8.9142  -19.6056   23.8243 C.3     1  UNL1        0.4351
     19 F          -9.4572  -19.4709   25.2161 F       1  UNL1       -0.1644
     20 F          -8.6974  -18.1225   23.7654 F       1  UNL1       -0.1644
     21 F          -9.1310  -21.0886   23.8832 F       1  UNL1       -0.1644
     22 N          -4.9512  -20.6120   20.6178 N.pl3   1  UNL1       -0.2825
     23 H          -4.7007  -21.5524   20.4690 H       1  UNL1        0.1551
     24 C          -3.8942  -19.5478   20.6332 C.ar    1  UNL1        0.0514
     25 C          -3.4427  -18.9579   21.9363 C.ar    1  UNL1        0.0156
     26 C          -2.3858  -17.8936   21.9516 C.ar    1  UNL1        0.0135
     27 C          -1.7803  -17.4193   20.6638 C.ar    1  UNL1        0.0683
     28 CL         -0.7233  -16.3551   20.6792 Cl      1  UNL1       -0.0814
     29 C          -2.2318  -18.0093   19.3607 C.ar    1  UNL1        0.0694
     30 CL         -1.6263  -17.5349   18.0729 Cl      1  UNL1       -0.0813
     31 C          -3.2887  -19.0735   19.3454 C.ar    1  UNL1        0.0269
@<TRIPOS>BOND
     1     7     8    2
     2     8     9   am
     3     9    11    1
     4    11    12    1
     5    12    13    1
     6    13    14    1
     7    14    15    1
     8    15    16    1
     9    16    17    1
    10     8     1    1
    11     1     2   ar
    12     2     3   ar
    13     3     4   ar
    14     4    22    1
    15    22    24    1
    16    24    25   ar
    17    25    26   ar
    18    26    27   ar
    19    27    28    1
    20    27    29   ar
    21    29    30    1
    22    29    31   ar
    23     4     5   ar
    24     5     6   ar
    25     6    18    1
    26    18    19    1
    27    18    20    1
    28    18    21    1
    29    17    12    1
    30     6     1   ar
    31    31    24   ar
    32     9    10    1
    33    22    23    1
@<TRIPOS>MOLECULE
*****
 31 33 0 0 0
SMALL
GASTEIGER

@<TRIPOS>ATOM
      1 C           8.0424   -7.7934   26.5304 C.ar    1  UNL1        0.0942
      2 C           8.0719   -7.8155   25.0308 C.ar    1  UNL1        0.1078
      3 N           8.1071   -6.5278   24.2624 N.ar    1  UNL1       -0.2119
      4 C           8.1127   -5.2179   24.9934 C.ar    1  UNL1        0.2206
      5 N           8.0832   -5.1959   26.4930 N.ar    1  UNL1       -0.2094
      6 C           8.0481   -6.4836   27.2614 C.ar    1  UNL1        0.1613
      7 O           9.2543   -9.5990   27.9520 O.2     1  UNL1       -0.2700
      8 C           8.0072   -9.0810   27.2989 C.2     1  UNL1        0.2488
      9 N           6.7249   -9.8508   27.4143 N.am    1  UNL1       -0.3008
     10 H           5.9064   -9.5109   26.9857 H       1  UNL1        0.1497
     11 C           6.6897  -11.1385   28.1828 C.3     1  UNL1        0.0898
     12 C           5.4696  -12.0095   28.1315 C.3     1  UNL1        0.0246
     13 C           5.2631  -12.9438   26.9764 C.3     1  UNL1        0.0338
     14 C           4.0430  -13.8148   26.9251 C.3     1  UNL1        0.1422
     15 O           3.0293  -13.7514   28.0289 O.3     1  UNL1       -0.3538
     16 C           3.2357  -12.8170   29.1840 C.3     1  UNL1        0.1422
     17 C           4.4558  -11.9461   29.2353 C.3     1  UNL1        0.0338
     18 C           8.0186   -6.4616   28.7610 C.3     1  UNL1        0.4351
     19 F           7.9891   -6.4395   30.2605 F       1  UNL1       -0.1644
     20 F           9.4846   -6.7770   28.7945 F       1  UNL1       -0.1644
     21 F           6.5525   -6.1461   28.7275 F       1  UNL1       -0.1644
     22 N           8.1479   -3.9303   24.2249 N.pl3   1  UNL1       -0.2825
     23 H           8.8877   -3.2953   24.3619 H       1  UNL1        0.1551
     24 C           7.0559   -3.6100   23.2477 C.ar    1  UNL1        0.0514
     25 C           5.6346   -3.5121   23.7168 C.ar    1  UNL1        0.0156
     26 C           4.5426   -3.1918   22.7396 C.ar    1  UNL1        0.0135
     27 C           4.8719   -2.9694   21.2932 C.ar    1  UNL1        0.0683
     28 CL          3.7800   -2.6492   20.3160 Cl      1  UNL1       -0.0814
     29 C           6.2933   -3.0673   20.8241 C.ar    1  UNL1        0.0694
     30 CL          6.6227   -2.8449   19.3777 Cl      1  UNL1       -0.0813
     31 C           7.3853   -3.3876   21.8013 C.ar    1  UNL1        0.0269
@<TRIPOS>BOND
     1     7     8    2
     2     8     9   am
     3     9    11    1
     4    11    12    1
     5    12    13    1
     6    13    14    1
     7    14    15    1
     8    15    16    1
     9    16    17    1
    10     8     1    1
    11     1     2   ar
    12     2     3   ar
    13     3     4   ar
    14     4    22    1
    15    22    24    1
    16    24    25   ar
    17    25    26   ar
    18    26    27   ar
    19    27    28    1
    20    27    29   ar
    21    29    30    1
    22    29    31   ar
    23     4     5   ar
    24     5     6   ar
    25     6    18    1
    26    18    19    1
    27    18    20    1
    28    18    21    1
    29    17    12    1
    30     6     1   ar
    31    31    24   ar
    32     9    10    1
    33    22    23    1
@<TRIPOS>MOLECULE
*****
 31 33 0 0 0
SMALL
GASTEIGER

@<TRIPOS>ATOM
      1 C           4.9851   -2.0289   20.6968 C.ar    1  UNL1        0.0942
      2 C           5.7140   -1.2162   21.7255 C.ar    1  UNL1        0.1078
      3 N           6.8491   -1.8240   22.4949 N.ar    1  UNL1       -0.2119
      4 C           7.2553   -3.2446   22.2357 C.ar    1  UNL1        0.2206
      5 N           6.5264   -4.0573   21.2070 N.ar    1  UNL1       -0.2094
      6 C           5.3912   -3.4494   20.4375 C.ar    1  UNL1        0.1613
      7 O           2.4469   -1.5346   20.4454 O.2     1  UNL1       -0.2700
      8 C           3.8500   -1.4211   19.9273 C.2     1  UNL1        0.2488
      9 N           4.1180   -0.6998   18.6397 N.am    1  UNL1       -0.3008
     10 H           5.0389   -0.6253   18.2996 H       1  UNL1        0.1497
     11 C           2.9830   -0.0920   17.8702 C.3     1  UNL1        0.0898
     12 C           2.4194    1.2343   18.2870 C.3     1  UNL1        0.0246
     13 C           3.3349    2.4012   18.5107 C.3     1  UNL1        0.0338
     14 C           2.7714    3.7274   18.9274 C.3     1  UNL1        0.1422
     15 O           1.2924    3.8865   19.1205 O.3     1  UNL1       -0.3538
     16 C           0.3769    2.7196   18.8968 C.3     1  UNL1        0.1422
     17 C           0.9405    1.3934   18.4800 C.3     1  UNL1        0.0338
     18 C           4.6623   -4.2621   19.4088 C.3     1  UNL1        0.4351
     19 F           3.9334   -5.0747   18.3802 F       1  UNL1       -0.1644
     20 F           3.7706   -4.8175   20.4795 F       1  UNL1       -0.1644
     21 F           5.5540   -3.7066   18.3382 F       1  UNL1       -0.1644
     22 N           8.3904   -3.8524   23.0052 N.pl3   1  UNL1       -0.2825
     23 H           9.3012   -3.4922   22.9057 H       1  UNL1        0.1551
     24 C           8.1378   -5.0090   23.9263 C.ar    1  UNL1        0.0514
     25 C           8.6280   -6.3790   23.5618 C.ar    1  UNL1        0.0156
     26 C           8.3754   -7.5356   24.4829 C.ar    1  UNL1        0.0135
     27 C           7.6325   -7.3223   25.7684 C.ar    1  UNL1        0.0683
     28 CL          7.3799   -8.4789   26.6895 Cl      1  UNL1       -0.0814
     29 C           7.1423   -5.9524   26.1329 C.ar    1  UNL1        0.0694
     30 CL          6.3994   -5.7390   27.4185 Cl      1  UNL1       -0.0813
     31 C           7.3949   -4.7957   25.2118 C.ar    1  UNL1        0.0269
@<TRIPOS>BOND
     1     7     8    2
     2     8     9   am
     3     9    11    1
     4    11    12    1
     5    12    13    1
     6    13    14    1
     7    14    15    1
     8    15    16    1
     9    16    17    1
    10     8     1    1
    11     1     2   ar
    12     2     3   ar
    13     3     4   ar
    14     4    22    1
    15    22    24    1
    16    24    25   ar
    17    25    26   ar
    18    26    27   ar
    19    27    28    1
    20    27    29   ar
    21    29    30    1
    22    29    31   ar
    23     4     5   ar
    24     5     6   ar
    25     6    18    1
    26    18    19    1
    27    18    20    1
    28    18    21    1
    29    17    12    1
    30     6     1   ar
    31    31    24   ar
    32     9    10    1
    33    22    23    1
@<TRIPOS>MOLECULE
*****
 31 33 0 0 0
SMALL
GASTEIGER

@<TRIPOS>ATOM
      1 C           7.2057   -3.2174   20.8439 C.ar    1  UNL1        0.0942
      2 C           8.5526   -3.7095   20.4037 C.ar    1  UNL1        0.1078
      3 N           9.2440   -4.7938   21.1757 N.ar    1  UNL1       -0.2119
      4 C           8.5885   -5.3862   22.3879 C.ar    1  UNL1        0.2206
      5 N           7.2417   -4.8941   22.8281 N.ar    1  UNL1       -0.2094
      6 C           6.5503   -3.8097   22.0561 C.ar    1  UNL1        0.1613
      7 O           6.7985   -0.6933   20.3824 O.2     1  UNL1       -0.2700
      8 C           6.5143   -2.1330   20.0719 C.2     1  UNL1        0.2488
      9 N           5.5386   -2.4883   18.9893 N.am    1  UNL1       -0.3008
     10 H           5.3520   -3.4333   18.7856 H       1  UNL1        0.1497
     11 C           4.8472   -1.4040   18.2174 C.3     1  UNL1        0.0898
     12 C           3.5194   -0.8826   18.6815 C.3     1  UNL1        0.0246
     13 C           2.8357    0.2132   17.9188 C.3     1  UNL1        0.0338
     14 C           1.5081    0.7345   18.3830 C.3     1  UNL1        0.1422
     15 O           0.8640    0.1599   19.6098 O.3     1  UNL1       -0.3538
     16 C           1.5477   -0.9359   20.3725 C.3     1  UNL1        0.1422
     17 C           2.8754   -1.4572   19.9083 C.3     1  UNL1        0.0338
     18 C           5.2034   -3.3176   22.4963 C.3     1  UNL1        0.4351
     19 F           3.8565   -2.8256   22.9365 F       1  UNL1       -0.1644
     20 F           5.8636   -2.3080   23.3877 F       1  UNL1       -0.1644
     21 F           4.5431   -4.3273   21.6049 F       1  UNL1       -0.1644
     22 N           9.2800   -6.4706   23.1599 N.pl3   1  UNL1       -0.2825
     23 H           9.8277   -7.1385   22.6876 H       1  UNL1        0.1551
     24 C           9.1368   -6.5374   24.6516 C.ar    1  UNL1        0.0514
     25 C           9.4969   -5.3494   25.4935 C.ar    1  UNL1        0.0156
     26 C           9.3538   -5.4162   26.9852 C.ar    1  UNL1        0.0135
     27 C           8.8505   -6.6710   27.6349 C.ar    1  UNL1        0.0683
     28 CL          8.7074   -6.7377   29.1266 Cl      1  UNL1       -0.0814
     29 C           8.4904   -7.8590   26.7930 C.ar    1  UNL1        0.0694
     30 CL          7.9871   -9.1138   27.4427 Cl      1  UNL1       -0.0813
     31 C           8.6336   -7.7922   25.3013 C.ar    1  UNL1        0.0269
@<TRIPOS>BOND
     1     7     8    2
     2     8     9   am
     3     9    11    1
     4    11    12    1
     5    12    13    1
     6    13    14    1
     7    14    15    1
     8    15    16    1
     9    16    17    1
    10     8     1    1
    11     1     2   ar
    12     2     3   ar
    13     3     4   ar
    14     4    22    1
    15    22    24    1
    16    24    25   ar
    17    25    26   ar
    18    26    27   ar
    19    27    28    1
    20    27    29   ar
    21    29    30    1
    22    29    31   ar
    23     4     5   ar
    24     5     6   ar
    25     6    18    1
    26    18    19    1
    27    18    20    1
    28    18    21    1
    29    17    12    1
    30     6     1   ar
    31    31    24   ar
    32     9    10    1
    33    22    23    1
@<TRIPOS>MOLECULE
*****
 31 33 0 0 0
SMALL
GASTEIGER

@<TRIPOS>ATOM
      1 C           0.1167    2.4212   28.5741 C.ar    1  UNL1        0.0942
      2 C           0.7641    3.6486   29.1437 C.ar    1  UNL1        0.1078
      3 N           1.1100    3.7059   30.6021 N.ar    1  UNL1       -0.2119
      4 C           0.8086    2.5357   31.4910 C.ar    1  UNL1        0.2206
      5 N           0.1612    1.3084   30.9213 N.ar    1  UNL1       -0.2094
      6 C          -0.1847    1.2511   29.4629 C.ar    1  UNL1        0.1613
      7 O           0.6435    1.5964   26.1674 O.2     1  UNL1       -0.2700
      8 C          -0.2292    2.3640   27.1157 C.2     1  UNL1        0.2488
      9 N          -1.4479    3.0743   26.6054 N.am    1  UNL1       -0.3008
     10 H          -2.0208    3.5780   27.2278 H       1  UNL1        0.1497
     11 C          -1.7939    3.0170   25.1470 C.3     1  UNL1        0.0898
     12 C          -3.1429    3.4753   24.6776 C.3     1  UNL1        0.0246
     13 C          -4.2160    3.7940   25.6760 C.3     1  UNL1        0.0338
     14 C          -5.5649    4.2522   25.2065 C.3     1  UNL1        0.1422
     15 O          -5.8407    4.3918   23.7387 O.3     1  UNL1       -0.3538
     16 C          -4.7675    4.0730   22.7403 C.3     1  UNL1        0.1422
     17 C          -3.4186    3.6148   23.2098 C.3     1  UNL1        0.0338
     18 C          -0.8321    0.0238   28.8932 C.3     1  UNL1        0.4351
     19 F          -1.4795   -1.2036   28.3236 F       1  UNL1       -0.1644
     20 F          -2.1852    0.6107   29.1663 F       1  UNL1       -0.1644
     21 F           0.5210   -0.5632   28.6201 F       1  UNL1       -0.1644
     22 N           1.1545    2.5930   32.9494 N.pl3   1  UNL1       -0.2825
     23 H           0.6066    3.1321   33.5645 H       1  UNL1        0.1551
     24 C           2.3353    1.8289   33.4707 C.ar    1  UNL1        0.0514
     25 C           3.0035    0.8002   32.6074 C.ar    1  UNL1        0.0156
     26 C           4.1843    0.0360   33.1287 C.ar    1  UNL1        0.0135
     27 C           4.6970    0.3006   34.5133 C.ar    1  UNL1        0.0683
     28 CL          5.8778   -0.4635   35.0346 Cl      1  UNL1       -0.0814
     29 C           4.0289    1.3294   35.3766 C.ar    1  UNL1        0.0694
     30 CL          4.5415    1.5940   36.7612 Cl      1  UNL1       -0.0813
     31 C           2.8480    2.0935   34.8553 C.ar    1  UNL1        0.0269
@<TRIPOS>BOND
     1     7     8    2
     2     8     9   am
     3     9    11    1
     4    11    12    1
     5    12    13    1
     6    13    14    1
     7    14    15    1
     8    15    16    1
     9    16    17    1
    10     8     1    1
    11     1     2   ar
    12     2     3   ar
    13     3     4   ar
    14     4    22    1
    15    22    24    1
    16    24    25   ar
    17    25    26   ar
    18    26    27   ar
    19    27    28    1
    20    27    29   ar
    21    29    30    1
    22    29    31   ar
    23     4     5   ar
    24     5     6   ar
    25     6    18    1
    26    18    19    1
    27    18    20    1
    28    18    21    1
    29    17    12    1
    30     6     1   ar
    31    31    24   ar
    32     9    10    1
    33    22    23    1
@<TRIPOS>MOLECULE
*****
 31 33 0 0 0
SMALL
GASTEIGER

@<TRIPOS>ATOM
      1 C           0.0734    2.3089   28.4024 C.ar    1  UNL1        0.0942
      2 C           0.8367    3.5166   28.8594 C.ar    1  UNL1        0.1078
      3 N           1.3688    3.5818   30.2603 N.ar    1  UNL1       -0.2119
      4 C           1.1376    2.4392   31.2043 C.ar    1  UNL1        0.2206
      5 N           0.3743    1.2315   30.7474 N.ar    1  UNL1       -0.2094
      6 C          -0.1578    1.1664   29.3464 C.ar    1  UNL1        0.1613
      7 O           0.1666    1.3140   26.0042 O.2     1  UNL1       -0.2700
      8 C          -0.4587    2.2437   27.0015 C.2     1  UNL1        0.2488
      9 N          -1.6162    3.1083   26.5979 N.am    1  UNL1       -0.3008
     10 H          -2.0266    3.7185   27.2525 H       1  UNL1        0.1497
     11 C          -2.1483    3.0431   25.1970 C.3     1  UNL1        0.0898
     12 C          -3.5298    3.5438   24.8953 C.3     1  UNL1        0.0246
     13 C          -4.3132    4.2655   25.9514 C.3     1  UNL1        0.0338
     14 C          -5.6945    4.7662   25.6497 C.3     1  UNL1        0.1422
     15 O          -6.2925    4.5451   24.2920 O.3     1  UNL1       -0.3538
     16 C          -5.5091    3.8234   23.2359 C.3     1  UNL1        0.1422
     17 C          -4.1278    3.3227   23.5376 C.3     1  UNL1        0.0338
     18 C          -0.9211   -0.0413   28.8895 C.3     1  UNL1        0.4351
     19 F          -1.6844   -1.2491   28.4325 F       1  UNL1       -0.1644
     20 F           0.3660   -0.7106   28.5083 F       1  UNL1       -0.1644
     21 F          -2.2083    0.6279   29.2707 F       1  UNL1       -0.1644
     22 N           1.6697    2.5044   32.6052 N.pl3   1  UNL1       -0.2825
     23 H           2.2653    1.7951   32.9391 H       1  UNL1        0.1551
     24 C           1.2945    3.6503   33.4975 C.ar    1  UNL1        0.0514
     25 C           2.0332    3.8723   34.7839 C.ar    1  UNL1        0.0156
     26 C           1.6579    5.0181   35.6762 C.ar    1  UNL1        0.0135
     27 C           0.5440    5.9420   35.2820 C.ar    1  UNL1        0.0683
     28 CL          0.1687    7.0879   36.1743 Cl      1  UNL1       -0.0814
     29 C          -0.1948    5.7201   33.9956 C.ar    1  UNL1        0.0694
     30 CL         -1.3088    6.6440   33.6014 Cl      1  UNL1       -0.0813
     31 C           0.1805    4.5742   33.1033 C.ar    1  UNL1        0.0269
@<TRIPOS>BOND
     1     7     8    2
     2     8     9   am
     3     9    11    1
     4    11    12    1
     5    12    13    1
     6    13    14    1
     7    14    15    1
     8    15    16    1
     9    16    17    1
    10     8     1    1
    11     1     2   ar
    12     2     3   ar
    13     3     4   ar
    14     4    22    1
    15    22    24    1
    16    24    25   ar
    17    25    26   ar
    18    26    27   ar
    19    27    28    1
    20    27    29   ar
    21    29    30    1
    22    29    31   ar
    23     4     5   ar
    24     5     6   ar
    25     6    18    1
    26    18    19    1
    27    18    20    1
    28    18    21    1
    29    17    12    1
    30     6     1   ar
    31    31    24   ar
    32     9    10    1
    33    22    23    1
