@<TRIPOS>MOLECULE
*****
 31 34 0 0 0
SMALL
GASTEIGER

@<TRIPOS>ATOM
      1 C           8.3898   -5.9023   27.0814 C.ar    1  UNL1        0.1295
      2 C           8.9441   -6.5282   28.3268 C.ar    1  UNL1        0.0216
      3 C           8.7509   -7.9941   28.5793 C.ar    1  UNL1        0.0178
      4 C           8.0035   -8.8341   27.5865 C.ar    1  UNL1        0.0789
      5 N           7.4492   -8.2082   26.3411 N.ar    1  UNL1       -0.2451
      6 C           7.6424   -6.7423   26.0885 C.ar    1  UNL1        0.1172
      7 S           8.5830   -4.4364   26.8289 S.O2    1  UNL1        0.0319
      8 O           7.6304   -4.5100   25.6726 O.2     1  UNL1       -0.1641
      9 O           9.5356   -4.3627   27.9852 O.2     1  UNL1       -0.1641
     10 N           8.7907   -0.7962   25.4979 N.ar    1  UNL1       -0.2500
     11 C           8.4323   -2.2408   25.3117 C.ar    1  UNL1        0.1153
     12 C           8.7761   -2.9705   26.5764 C.ar    1  UNL1        0.1498
     13 C           9.3470   -1.9769   27.5442 C.ar    1  UNL1        0.1404
     14 N           9.3561   -0.6331   26.8777 N.ar    1  UNL1       -0.1663
     15 C           8.5225   -0.0469   23.0247 C.3     1  UNL1        0.0263
     16 C           8.6147    0.2938   24.4826 C.3     1  UNL1        0.1054
     17 C           8.5308    1.7245   24.9251 C.3     1  UNL1        0.0263
     18 C           7.8104  -10.3001   27.8390 C.3     1  UNL1        0.1361
     19 N           6.4271  -10.8790   27.8753 N.am    1  UNL1       -0.2931
     20 C           6.2259  -12.3184   28.2462 C.2     1  UNL1        0.2809
     21 O           7.4080  -13.1789   28.5808 O.2     1  UNL1       -0.2668
     22 H           5.6512  -10.3142   27.6557 H       1  UNL1        0.1502
     23 C           4.8426  -12.8973   28.2824 C.ar    1  UNL1        0.1984
     24 C           3.5646  -12.1208   28.4001 C.ar    1  UNL1        0.0453
     25 C           2.4266  -13.0979   28.3978 C.ar    1  UNL1        0.0409
     26 C           0.9413  -12.9091   28.4888 C.ar    1  UNL1        0.0238
     27 C           0.0307  -14.1006   28.4606 C.ar    1  UNL1        0.0991
     28 N           0.6053  -15.4811   28.3415 N.ar    1  UNL1       -0.2391
     29 C           2.0905  -15.6700   28.2505 C.ar    1  UNL1        0.1362
     30 C           3.0011  -14.4784   28.2787 C.ar    1  UNL1        0.1646
     31 O           4.4943  -14.3544   28.2073 O.2     1  UNL1       -0.4473
@<TRIPOS>BOND
     1    15    16    1
     2    16    17    1
     3    16    10    1
     4    10    11   ar
     5    11    12   ar
     6    12     7    1
     7     7     8    2
     8     7     9    2
     9     7     1    1
    10     1     2   ar
    11     2     3   ar
    12     3     4   ar
    13     4    18    1
    14    18    19    1
    15    19    20   am
    16    20    21    2
    17    20    23    1
    18    23    24   ar
    19    24    25   ar
    20    25    26   ar
    21    26    27   ar
    22    27    28   ar
    23    28    29   ar
    24    29    30   ar
    25    30    31   ar
    26     4     5   ar
    27     5     6   ar
    28    12    13   ar
    29    13    14   ar
    30    14    10   ar
    31     6     1   ar
    32    31    23   ar
    33    30    25   ar
    34    19    22    1
@<TRIPOS>MOLECULE
*****
 31 34 0 0 0
SMALL
GASTEIGER

@<TRIPOS>ATOM
      1 C           7.9956   -5.6062   24.6568 C.ar    1  UNL1        0.1295
      2 C           7.2252   -5.5745   25.9435 C.ar    1  UNL1        0.0216
      3 C           7.2218   -6.7731   26.8453 C.ar    1  UNL1        0.0178
      4 C           7.9889   -8.0033   26.4606 C.ar    1  UNL1        0.0789
      5 N           8.7593   -8.0350   25.1739 N.ar    1  UNL1       -0.2451
      6 C           8.7627   -6.8364   24.2720 C.ar    1  UNL1        0.1172
      7 S           7.9989   -4.4076   23.7549 S.O2    1  UNL1        0.0319
      8 O           7.8469   -5.3045   22.5623 O.2     1  UNL1       -0.1641
      9 O           8.1510   -3.5107   24.9475 O.2     1  UNL1       -0.1641
     10 N           7.5058   -1.6989   21.0190 N.ar    1  UNL1       -0.2500
     11 C           7.1927   -3.0455   21.6009 C.ar    1  UNL1        0.1153
     12 C           8.0023   -3.2090   22.8531 C.ar    1  UNL1        0.1498
     13 C           8.8158   -1.9635   23.0450 C.ar    1  UNL1        0.1404
     14 N           8.5090   -1.0302   21.9115 N.ar    1  UNL1       -0.1663
     15 C           5.4302   -1.0681   19.5894 C.3     1  UNL1        0.0263
     16 C           6.9189   -1.1223   19.7648 C.3     1  UNL1        0.1054
     17 C           7.8207   -0.5999   18.6860 C.3     1  UNL1        0.0263
     18 C           7.9855   -9.2019   27.3625 C.3     1  UNL1        0.1361
     19 N           6.7168   -9.9711   27.5829 N.am    1  UNL1       -0.2931
     20 C           6.7702  -11.4474   27.8428 C.2     1  UNL1        0.2809
     21 O           8.0925  -12.1546   27.8823 O.2     1  UNL1       -0.2668
     22 H           5.8489   -9.5070   27.5570 H       1  UNL1        0.1502
     23 C           5.5015  -12.2166   28.0632 C.ar    1  UNL1        0.1984
     24 C           4.3874  -11.8324   28.9912 C.ar    1  UNL1        0.0453
     25 C           3.3214  -12.8834   28.8959 C.ar    1  UNL1        0.0409
     26 C           1.9950  -13.0326   29.5803 C.ar    1  UNL1        0.0238
     27 C           1.1238  -14.2156   29.2776 C.ar    1  UNL1        0.0991
     28 N           1.5791  -15.2493   28.2906 N.ar    1  UNL1       -0.2391
     29 C           2.9054  -15.1001   27.6063 C.ar    1  UNL1        0.1362
     30 C           3.7766  -13.9171   27.9089 C.ar    1  UNL1        0.1646
     31 O           5.1239  -13.5050   27.3943 O.2     1  UNL1       -0.4473
@<TRIPOS>BOND
     1    15    16    1
     2    16    17    1
     3    16    10    1
     4    10    11   ar
     5    11    12   ar
     6    12     7    1
     7     7     8    2
     8     7     9    2
     9     7     1    1
    10     1     2   ar
    11     2     3   ar
    12     3     4   ar
    13     4    18    1
    14    18    19    1
    15    19    20   am
    16    20    21    2
    17    20    23    1
    18    23    24   ar
    19    24    25   ar
    20    25    26   ar
    21    26    27   ar
    22    27    28   ar
    23    28    29   ar
    24    29    30   ar
    25    30    31   ar
    26     4     5   ar
    27     5     6   ar
    28    12    13   ar
    29    13    14   ar
    30    14    10   ar
    31     6     1   ar
    32    31    23   ar
    33    30    25   ar
    34    19    22    1
@<TRIPOS>MOLECULE
*****
 31 34 0 0 0
SMALL
GASTEIGER

@<TRIPOS>ATOM
      1 C         -13.3856   -0.8355   18.5109 C.ar    1  UNL1        0.1295
      2 C         -14.7611   -1.0804   19.0568 C.ar    1  UNL1        0.0216
      3 C         -15.6682    0.0773   19.3515 C.ar    1  UNL1        0.0178
      4 C         -15.1997    1.4800   19.1002 C.ar    1  UNL1        0.0789
      5 N         -13.8243    1.7249   18.5542 N.ar    1  UNL1       -0.2451
      6 C         -12.9172    0.5671   18.2596 C.ar    1  UNL1        0.1172
      7 S         -12.4786   -1.9933   18.2162 S.O2    1  UNL1        0.0319
      8 O         -13.5594   -2.6310   17.3947 O.2     1  UNL1       -0.1641
      9 O         -11.3977   -1.3556   19.0378 O.2     1  UNL1       -0.1641
     10 N         -10.6742   -5.4014   17.7753 N.ar    1  UNL1       -0.2500
     11 C         -11.8449   -4.5900   18.2453 C.ar    1  UNL1        0.1153
     12 C         -11.5715   -3.1510   17.9216 C.ar    1  UNL1        0.1498
     13 C         -10.2318   -3.0732   17.2515 C.ar    1  UNL1        0.1404
     14 N          -9.6772   -4.4639   17.1610 N.ar    1  UNL1       -0.1663
     15 C          -9.5558   -7.4675   18.8846 C.3     1  UNL1        0.0263
     16 C         -10.5264   -6.8890   17.8980 C.3     1  UNL1        0.1054
     17 C         -11.3491   -7.7983   17.0341 C.3     1  UNL1        0.0263
     18 C         -16.1068    2.6378   19.3949 C.3     1  UNL1        0.1361
     19 N         -16.3967    3.0207   20.8159 N.am    1  UNL1       -0.2931
     20 C         -15.6167    4.1225   21.4697 C.2     1  UNL1        0.2809
     21 O         -14.5469    4.8414   20.7025 O.2     1  UNL1       -0.2668
     22 H         -17.0988    2.5488   21.3194 H       1  UNL1        0.1502
     23 C         -15.9065    4.5055   22.8908 C.ar    1  UNL1        0.1984
     24 C         -14.8964    4.6387   23.9916 C.ar    1  UNL1        0.0453
     25 C         -15.6229    5.0380   25.2417 C.ar    1  UNL1        0.0409
     26 C         -15.1443    5.3128   26.6364 C.ar    1  UNL1        0.0238
     27 C         -16.1249    5.7012   27.7029 C.ar    1  UNL1        0.0991
     28 N         -17.5841    5.8147   27.3747 N.ar    1  UNL1       -0.2391
     29 C         -18.0628    5.5399   25.9800 C.ar    1  UNL1        0.1362
     30 C         -17.0821    5.1515   24.9135 C.ar    1  UNL1        0.1646
     31 O         -17.2574    4.8224   23.4606 O.2     1  UNL1       -0.4473
@<TRIPOS>BOND
     1    15    16    1
     2    16    17    1
     3    16    10    1
     4    10    11   ar
     5    11    12   ar
     6    12     7    1
     7     7     8    2
     8     7     9    2
     9     7     1    1
    10     1     2   ar
    11     2     3   ar
    12     3     4   ar
    13     4    18    1
    14    18    19    1
    15    19    20   am
    16    20    21    2
    17    20    23    1
    18    23    24   ar
    19    24    25   ar
    20    25    26   ar
    21    26    27   ar
    22    27    28   ar
    23    28    29   ar
    24    29    30   ar
    25    30    31   ar
    26     4     5   ar
    27     5     6   ar
    28    12    13   ar
    29    13    14   ar
    30    14    10   ar
    31     6     1   ar
    32    31    23   ar
    33    30    25   ar
    34    19    22    1
@<TRIPOS>MOLECULE
*****
 31 34 0 0 0
SMALL
GASTEIGER

@<TRIPOS>ATOM
      1 C           0.6186    1.5504   19.3029 C.ar    1  UNL1        0.1295
      2 C           0.3571    2.5648   18.2292 C.ar    1  UNL1        0.0216
      3 C          -0.7476    3.5657   18.3959 C.ar    1  UNL1        0.0178
      4 C          -1.5909    3.5522   19.6364 C.ar    1  UNL1        0.0789
      5 N          -1.3294    2.5380   20.7101 N.ar    1  UNL1       -0.2451
      6 C          -0.2247    1.5370   20.5433 C.ar    1  UNL1        0.1172
      7 S           1.7233    0.5496   19.1361 S.O2    1  UNL1        0.0319
      8 O           2.4659    1.5151   18.2608 O.2     1  UNL1       -0.1641
      9 O           0.9807   -0.4159   20.0115 O.2     1  UNL1       -0.1641
     10 N           4.2161   -2.4237   19.2404 N.ar    1  UNL1       -0.2500
     11 C           2.9727   -1.7389   19.7251 C.ar    1  UNL1        0.1153
     12 C           2.8280   -0.4513   18.9694 C.ar    1  UNL1        0.1498
     13 C           3.9820   -0.3402   18.0176 C.ar    1  UNL1        0.1404
     14 N           4.8399   -1.5592   18.1851 N.ar    1  UNL1       -0.1663
     15 C           5.6202   -3.7967   20.9414 C.3     1  UNL1        0.0263
     16 C           4.7432   -3.7415   19.7257 C.3     1  UNL1        0.1054
     17 C           4.3933   -5.0041   18.9955 C.3     1  UNL1        0.0263
     18 C          -2.6956    4.5532   19.8031 C.3     1  UNL1        0.1361
     19 N          -3.1662    4.9289   21.1769 N.am    1  UNL1       -0.2931
     20 C          -4.3890    4.2800   21.7545 C.2     1  UNL1        0.2809
     21 O          -5.1413    3.2554   20.9582 O.2     1  UNL1       -0.2668
     22 H          -2.6724    5.6015   21.6996 H       1  UNL1        0.1502
     23 C          -4.8595    4.6558   23.1283 C.ar    1  UNL1        0.1984
     24 C          -6.1540    5.3364   23.4614 C.ar    1  UNL1        0.0453
     25 C          -6.2128    5.5181   24.9492 C.ar    1  UNL1        0.0409
     26 C          -7.2494    6.1277   25.8458 C.ar    1  UNL1        0.0238
     27 C          -7.0278    6.1689   27.3287 C.ar    1  UNL1        0.0991
     28 N          -5.7695    5.6006   27.9151 N.ar    1  UNL1       -0.2391
     29 C          -4.7329    4.9911   27.0186 C.ar    1  UNL1        0.1362
     30 C          -4.9545    4.9498   25.5356 C.ar    1  UNL1        0.1646
     31 O          -4.1182    4.4169   24.4102 O.2     1  UNL1       -0.4473
@<TRIPOS>BOND
     1    15    16    1
     2    16    17    1
     3    16    10    1
     4    10    11   ar
     5    11    12   ar
     6    12     7    1
     7     7     8    2
     8     7     9    2
     9     7     1    1
    10     1     2   ar
    11     2     3   ar
    12     3     4   ar
    13     4    18    1
    14    18    19    1
    15    19    20   am
    16    20    21    2
    17    20    23    1
    18    23    24   ar
    19    24    25   ar
    20    25    26   ar
    21    26    27   ar
    22    27    28   ar
    23    28    29   ar
    24    29    30   ar
    25    30    31   ar
    26     4     5   ar
    27     5     6   ar
    28    12    13   ar
    29    13    14   ar
    30    14    10   ar
    31     6     1   ar
    32    31    23   ar
    33    30    25   ar
    34    19    22    1
@<TRIPOS>MOLECULE
*****
 31 34 0 0 0
SMALL
GASTEIGER

@<TRIPOS>ATOM
      1 C           1.9964   -0.0958   20.0853 C.ar    1  UNL1        0.1295
      2 C           1.7594    0.7342   18.8585 C.ar    1  UNL1        0.0216
      3 C           0.7000    1.7960   18.8645 C.ar    1  UNL1        0.0178
      4 C          -0.1225    2.0279   20.0973 C.ar    1  UNL1        0.0789
      5 N           0.1144    1.1979   21.3240 N.ar    1  UNL1       -0.2451
      6 C           1.1739    0.1360   21.3181 C.ar    1  UNL1        0.1172
      7 S           3.0558   -1.1577   20.0793 S.O2    1  UNL1        0.0319
      8 O           3.2204   -0.9850   18.5984 O.2     1  UNL1       -0.1641
      9 O           2.8913   -1.3303   21.5602 O.2     1  UNL1       -0.1641
     10 N           6.2605   -3.3409   20.2502 N.ar    1  UNL1       -0.2500
     11 C           5.5710   -2.0142   20.3711 C.ar    1  UNL1        0.1153
     12 C           4.1153   -2.2195   20.0733 C.ar    1  UNL1        0.1498
     13 C           3.9050   -3.6730   19.7684 C.ar    1  UNL1        0.1404
     14 N           5.2308   -4.3661   19.8778 N.ar    1  UNL1       -0.1663
     15 C           8.7426   -2.8130   19.6929 C.3     1  UNL1        0.0263
     16 C           7.7228   -3.5973   20.4643 C.3     1  UNL1        0.1054
     17 C           8.1654   -4.6380   21.4497 C.3     1  UNL1        0.0263
     18 C          -1.1820    3.0897   20.1033 C.3     1  UNL1        0.1361
     19 N          -1.7515    3.5737   21.4038 N.am    1  UNL1       -0.2931
     20 C          -3.2157    3.4138   21.6872 C.2     1  UNL1        0.2809
     21 O          -4.1105    2.7700   20.6700 O.2     1  UNL1       -0.2668
     22 H          -1.1641    3.9963   22.0715 H       1  UNL1        0.1502
     23 C          -3.7852    3.8978   22.9878 C.ar    1  UNL1        0.1984
     24 C          -4.9432    4.8376   23.1480 C.ar    1  UNL1        0.0453
     25 C          -5.1703    5.0476   24.6157 C.ar    1  UNL1        0.0409
     26 C          -6.1723    5.8717   25.3685 C.ar    1  UNL1        0.0238
     27 C          -6.1566    5.8858   26.8683 C.ar    1  UNL1        0.0991
     28 N          -5.1389    5.0758   27.6154 N.ar    1  UNL1       -0.2391
     29 C          -4.1369    4.2516   26.8626 C.ar    1  UNL1        0.1362
     30 C          -4.1526    4.2375   25.3628 C.ar    1  UNL1        0.1646
     31 O          -3.2965    3.5269   24.3566 O.2     1  UNL1       -0.4473
@<TRIPOS>BOND
     1    15    16    1
     2    16    17    1
     3    16    10    1
     4    10    11   ar
     5    11    12   ar
     6    12     7    1
     7     7     8    2
     8     7     9    2
     9     7     1    1
    10     1     2   ar
    11     2     3   ar
    12     3     4   ar
    13     4    18    1
    14    18    19    1
    15    19    20   am
    16    20    21    2
    17    20    23    1
    18    23    24   ar
    19    24    25   ar
    20    25    26   ar
    21    26    27   ar
    22    27    28   ar
    23    28    29   ar
    24    29    30   ar
    25    30    31   ar
    26     4     5   ar
    27     5     6   ar
    28    12    13   ar
    29    13    14   ar
    30    14    10   ar
    31     6     1   ar
    32    31    23   ar
    33    30    25   ar
    34    19    22    1
@<TRIPOS>MOLECULE
*****
 31 34 0 0 0
SMALL
GASTEIGER

@<TRIPOS>ATOM
      1 C           1.7443    1.5850   29.9415 C.ar    1  UNL1        0.1295
      2 C           0.3438    1.9109   29.5143 C.ar    1  UNL1        0.0216
      3 C          -0.0230    1.8806   28.0602 C.ar    1  UNL1        0.0178
      4 C           1.0106    1.5245   27.0332 C.ar    1  UNL1        0.0789
      5 N           2.4111    1.1986   27.4603 N.ar    1  UNL1       -0.2451
      6 C           2.7780    1.2288   28.9145 C.ar    1  UNL1        0.1172
      7 S           2.1111    1.6152   31.3956 S.O2    1  UNL1        0.0319
      8 O           0.6604    1.7302   31.7591 O.2     1  UNL1       -0.1641
      9 O           3.5618    1.5002   31.0320 O.2     1  UNL1       -0.1641
     10 N           3.5477    1.1501   34.9712 N.ar    1  UNL1       -0.2500
     11 C           3.5112    0.7864   33.5164 C.ar    1  UNL1        0.1153
     12 C           2.4779    1.6455   32.8497 C.ar    1  UNL1        0.1498
     13 C           1.8759    2.5401   33.8924 C.ar    1  UNL1        0.1404
     14 N           2.5370    2.2339   35.2036 N.ar    1  UNL1       -0.1663
     15 C           4.2048    0.8277   37.4641 C.3     1  UNL1        0.0263
     16 C           4.4385    0.5376   36.0111 C.3     1  UNL1        0.1054
     17 C           5.5630   -0.3651   35.5980 C.3     1  UNL1        0.0263
     18 C           0.6438    1.4942   25.5790 C.3     1  UNL1        0.1361
     19 N           1.1681    0.4010   24.6958 N.am    1  UNL1       -0.2931
     20 C           2.4069    0.6249   23.8803 C.2     1  UNL1        0.2809
     21 O           3.1214    1.9420   23.9479 O.2     1  UNL1       -0.2668
     22 H           0.6991   -0.4635   24.6515 H       1  UNL1        0.1502
     23 C           2.9312   -0.4683   22.9971 C.ar    1  UNL1        0.1984
     24 C           2.6368   -0.6391   21.5362 C.ar    1  UNL1        0.0453
     25 C           3.3656   -1.8590   21.0560 C.ar    1  UNL1        0.0409
     26 C           3.4473   -2.5141   19.7091 C.ar    1  UNL1        0.0238
     27 C           4.2737   -3.7524   19.5263 C.ar    1  UNL1        0.0991
     28 N           5.0186   -4.3356   20.6904 N.ar    1  UNL1       -0.2391
     29 C           4.9369   -3.6805   22.0373 C.ar    1  UNL1        0.1362
     30 C           4.1104   -2.4422   22.2201 C.ar    1  UNL1        0.1646
     31 O           3.8419   -1.5827   23.4197 O.2     1  UNL1       -0.4473
@<TRIPOS>BOND
     1    15    16    1
     2    16    17    1
     3    16    10    1
     4    10    11   ar
     5    11    12   ar
     6    12     7    1
     7     7     8    2
     8     7     9    2
     9     7     1    1
    10     1     2   ar
    11     2     3   ar
    12     3     4   ar
    13     4    18    1
    14    18    19    1
    15    19    20   am
    16    20    21    2
    17    20    23    1
    18    23    24   ar
    19    24    25   ar
    20    25    26   ar
    21    26    27   ar
    22    27    28   ar
    23    28    29   ar
    24    29    30   ar
    25    30    31   ar
    26     4     5   ar
    27     5     6   ar
    28    12    13   ar
    29    13    14   ar
    30    14    10   ar
    31     6     1   ar
    32    31    23   ar
    33    30    25   ar
    34    19    22    1
@<TRIPOS>MOLECULE
*****
 31 34 0 0 0
SMALL
GASTEIGER

@<TRIPOS>ATOM
      1 C           2.2752   -0.0140   19.0487 C.ar    1  UNL1        0.1295
      2 C           2.4619   -1.0591   20.1084 C.ar    1  UNL1        0.0216
      3 C           3.5149   -2.1146   19.9435 C.ar    1  UNL1        0.0178
      4 C           4.3811   -2.1250   18.7190 C.ar    1  UNL1        0.0789
      5 N           4.1944   -1.0800   17.6593 N.ar    1  UNL1       -0.2451
      6 C           3.1414   -0.0244   17.8241 C.ar    1  UNL1        0.1172
      7 S           1.2222    1.0415   19.2135 S.O2    1  UNL1        0.0319
      8 O           2.0276    1.9778   18.3623 O.2     1  UNL1       -0.1641
      9 O           0.4169    0.1051   20.0648 O.2     1  UNL1       -0.1641
     10 N          -1.6502    3.4198   20.2894 N.ar    1  UNL1       -0.2500
     11 C          -0.7719    2.2298   20.5388 C.ar    1  UNL1        0.1153
     12 C           0.1693    2.0970   19.3784 C.ar    1  UNL1        0.1498
     13 C          -0.1273    3.2049   18.4118 C.ar    1  UNL1        0.1404
     14 N          -1.2519    4.0225   18.9748 N.ar    1  UNL1       -0.1663
     15 C          -4.1129    3.3298   21.1122 C.3     1  UNL1        0.0263
     16 C          -2.7362    3.9195   21.1954 C.3     1  UNL1        0.1054
     17 C          -2.4456    5.0089   22.1847 C.3     1  UNL1        0.0263
     18 C           5.4341   -3.1806   18.5541 C.3     1  UNL1        0.1361
     19 N           5.8433   -4.0213   19.7270 N.am    1  UNL1       -0.2931
     20 C           7.1023   -3.7008   20.4767 C.2     1  UNL1        0.2809
     21 O           7.9522   -2.5395   20.0535 O.2     1  UNL1       -0.2668
     22 H           5.2855   -4.7835   20.0048 H       1  UNL1        0.1502
     23 C           7.5115   -4.5416   21.6496 C.ar    1  UNL1        0.1984
     24 C           7.1010   -4.3246   23.0759 C.ar    1  UNL1        0.0453
     25 C           7.7388   -5.3958   23.9100 C.ar    1  UNL1        0.0409
     26 C           7.6908   -5.6844   25.3812 C.ar    1  UNL1        0.0238
     27 C           8.4475   -6.8520   25.9415 C.ar    1  UNL1        0.0991
     28 N           9.2523   -7.7311   25.0306 N.ar    1  UNL1       -0.2391
     29 C           9.3003   -7.4425   23.5594 C.ar    1  UNL1        0.1362
     30 C           8.5436   -6.2749   22.9991 C.ar    1  UNL1        0.1646
     31 O           8.4031   -5.7469   21.6022 O.2     1  UNL1       -0.4473
@<TRIPOS>BOND
     1    15    16    1
     2    16    17    1
     3    16    10    1
     4    10    11   ar
     5    11    12   ar
     6    12     7    1
     7     7     8    2
     8     7     9    2
     9     7     1    1
    10     1     2   ar
    11     2     3   ar
    12     3     4   ar
    13     4    18    1
    14    18    19    1
    15    19    20   am
    16    20    21    2
    17    20    23    1
    18    23    24   ar
    19    24    25   ar
    20    25    26   ar
    21    26    27   ar
    22    27    28   ar
    23    28    29   ar
    24    29    30   ar
    25    30    31   ar
    26     4     5   ar
    27     5     6   ar
    28    12    13   ar
    29    13    14   ar
    30    14    10   ar
    31     6     1   ar
    32    31    23   ar
    33    30    25   ar
    34    19    22    1
@<TRIPOS>MOLECULE
*****
 31 34 0 0 0
SMALL
GASTEIGER

@<TRIPOS>ATOM
      1 C           6.4796   -3.8420   27.6840 C.ar    1  UNL1        0.1295
      2 C           6.7917   -5.0447   28.5243 C.ar    1  UNL1        0.0216
      3 C           6.7876   -4.9359   30.0203 C.ar    1  UNL1        0.0178
      4 C           6.4714   -3.6244   30.6761 C.ar    1  UNL1        0.0789
      5 N           6.1592   -2.4218   29.8358 N.ar    1  UNL1       -0.2451
      6 C           6.1633   -2.5305   28.3397 C.ar    1  UNL1        0.1172
      7 S           6.4837   -3.9508   26.1880 S.O2    1  UNL1        0.0319
      8 O           6.1230   -2.4987   26.0814 O.2     1  UNL1       -0.1641
      9 O           6.8443   -5.4028   26.2946 O.2     1  UNL1       -0.1641
     10 N           5.8913   -3.7819   22.3557 N.ar    1  UNL1       -0.2500
     11 C           5.5150   -3.4034   23.7575 C.ar    1  UNL1        0.1153
     12 C           6.4878   -4.0596   24.6920 C.ar    1  UNL1        0.1498
     13 C           7.4654   -4.8436   23.8677 C.ar    1  UNL1        0.1404
     14 N           7.0968   -4.6721   22.4238 N.ar    1  UNL1       -0.1663
     15 C           4.2309   -2.1910   21.1467 C.3     1  UNL1        0.0263
     16 C           5.1861   -3.3468   21.1054 C.3     1  UNL1        0.1054
     17 C           5.4361   -4.0674   19.8139 C.3     1  UNL1        0.0263
     18 C           6.4673   -3.5157   32.1722 C.3     1  UNL1        0.1361
     19 N           6.1065   -2.2161   32.8287 N.am    1  UNL1       -0.2931
     20 C           4.8002   -2.0789   33.5529 C.2     1  UNL1        0.2809
     21 O           3.8545   -3.2413   33.6206 O.2     1  UNL1       -0.2668
     22 H           6.7272   -1.4532   32.7842 H       1  UNL1        0.1502
     23 C           4.4394   -0.7794   34.2094 C.ar    1  UNL1        0.1984
     24 C           4.8263   -0.3542   35.5949 C.ar    1  UNL1        0.0453
     25 C           4.2544    1.0112   35.8375 C.ar    1  UNL1        0.0409
     26 C           4.3122    1.9272   37.0238 C.ar    1  UNL1        0.0238
     27 C           3.6296    3.2620   36.9745 C.ar    1  UNL1        0.0991
     28 N           2.8893    3.6807   35.7389 N.ar    1  UNL1       -0.2391
     29 C           2.8316    2.7646   34.5526 C.ar    1  UNL1        0.1362
     30 C           3.5141    1.4298   34.6019 C.ar    1  UNL1        0.1646
     31 O           3.6285    0.3232   33.5957 O.2     1  UNL1       -0.4473
@<TRIPOS>BOND
     1    15    16    1
     2    16    17    1
     3    16    10    1
     4    10    11   ar
     5    11    12   ar
     6    12     7    1
     7     7     8    2
     8     7     9    2
     9     7     1    1
    10     1     2   ar
    11     2     3   ar
    12     3     4   ar
    13     4    18    1
    14    18    19    1
    15    19    20   am
    16    20    21    2
    17    20    23    1
    18    23    24   ar
    19    24    25   ar
    20    25    26   ar
    21    26    27   ar
    22    27    28   ar
    23    28    29   ar
    24    29    30   ar
    25    30    31   ar
    26     4     5   ar
    27     5     6   ar
    28    12    13   ar
    29    13    14   ar
    30    14    10   ar
    31     6     1   ar
    32    31    23   ar
    33    30    25   ar
    34    19    22    1
@<TRIPOS>MOLECULE
*****
 31 34 0 0 0
SMALL
GASTEIGER

@<TRIPOS>ATOM
      1 C           2.6443   -0.3694   19.6521 C.ar    1  UNL1        0.1295
      2 C           1.3468   -0.4459   20.4010 C.ar    1  UNL1        0.0216
      3 C           0.3185    0.6329   20.2320 C.ar    1  UNL1        0.0178
      4 C           0.5876    1.7884   19.3141 C.ar    1  UNL1        0.0789
      5 N           1.8850    1.8649   18.5652 N.ar    1  UNL1       -0.2451
      6 C           2.9134    0.7860   18.7342 C.ar    1  UNL1        0.1172
      7 S           3.6726   -1.4483   19.8212 S.O2    1  UNL1        0.0319
      8 O           4.1169   -1.2470   18.4027 O.2     1  UNL1       -0.1641
      9 O           3.2282   -1.6495   21.2396 O.2     1  UNL1       -0.1641
     10 N           6.8147   -3.6663   20.3430 N.ar    1  UNL1       -0.2500
     11 C           6.1652   -2.3182   20.2395 C.ar    1  UNL1        0.1153
     12 C           4.7009   -2.5271   19.9902 C.ar    1  UNL1        0.1498
     13 C           4.4454   -4.0043   19.9397 C.ar    1  UNL1        0.1404
     14 N           5.7518   -4.7084   20.1577 N.ar    1  UNL1       -0.1663
     15 C           8.7147   -5.2509   21.1363 C.3     1  UNL1        0.0263
     16 C           8.2714   -3.9267   20.5886 C.3     1  UNL1        0.1054
     17 C           9.2848   -2.8629   20.2866 C.3     1  UNL1        0.0263
     18 C          -0.4408    2.8673   19.1451 C.3     1  UNL1        0.1361
     19 N          -1.4207    3.1483   20.2454 N.am    1  UNL1       -0.2931
     20 C          -2.8128    3.5973   19.9134 C.2     1  UNL1        0.2809
     21 O          -3.2251    3.7652   18.4810 O.2     1  UNL1       -0.2668
     22 H          -1.1501    3.0381   21.1856 H       1  UNL1        0.1502
     23 C          -3.7927    3.8784   21.0138 C.ar    1  UNL1        0.1984
     24 C          -5.2849    3.9355   20.8722 C.ar    1  UNL1        0.0453
     25 C          -5.8669    4.2441   22.2198 C.ar    1  UNL1        0.0409
     26 C          -7.2818    4.4207   22.6855 C.ar    1  UNL1        0.0238
     27 C          -7.5641    4.7309   24.1257 C.ar    1  UNL1        0.0991
     28 N          -6.4316    4.8646   25.1001 N.ar    1  UNL1       -0.2391
     29 C          -5.0167    4.6880   24.6344 C.ar    1  UNL1        0.1362
     30 C          -4.7344    4.3778   23.1943 C.ar    1  UNL1        0.1646
     31 O          -3.4525    4.1517   22.4489 O.2     1  UNL1       -0.4473
@<TRIPOS>BOND
     1    15    16    1
     2    16    17    1
     3    16    10    1
     4    10    11   ar
     5    11    12   ar
     6    12     7    1
     7     7     8    2
     8     7     9    2
     9     7     1    1
    10     1     2   ar
    11     2     3   ar
    12     3     4   ar
    13     4    18    1
    14    18    19    1
    15    19    20   am
    16    20    21    2
    17    20    23    1
    18    23    24   ar
    19    24    25   ar
    20    25    26   ar
    21    26    27   ar
    22    27    28   ar
    23    28    29   ar
    24    29    30   ar
    25    30    31   ar
    26     4     5   ar
    27     5     6   ar
    28    12    13   ar
    29    13    14   ar
    30    14    10   ar
    31     6     1   ar
    32    31    23   ar
    33    30    25   ar
    34    19    22    1
