@<TRIPOS>MOLECULE
*****
 65 70 0 0 0
SMALL
GASTEIGER

@<TRIPOS>ATOM
      1 C           0.2165    2.9466   26.6282 C.3     1  UNL1        0.1530
      2 C           0.2697    3.0773   28.1216 C.3     1  UNL1        0.0553
      3 C           0.5762    2.9115   29.5805 C.ar    1  UNL1       -0.0199
      4 C           0.3723    3.3299   31.0065 C.ar    1  UNL1       -0.0029
      5 C           1.1071    2.6243   32.1074 C.ar    1  UNL1        0.0143
      6 C           2.0457    1.5003   31.7825 C.ar    1  UNL1        0.0503
      7 C           2.2496    1.0819   30.3565 C.ar    1  UNL1        0.0143
      8 C           1.5149    1.7875   29.2556 C.ar    1  UNL1       -0.0029
      9 N           3.6966   -0.2135   33.2565 N.am    1  UNL1       -0.2825
     10 C           4.6827   -1.3421   33.3203 C.2     1  UNL1        0.2467
     11 O           4.8640   -1.3598   34.8091 O.2     1  UNL1       -0.2729
     12 C           5.6213   -2.4660   32.9953 C.3     1  UNL1        0.1815
     13 N           6.4487   -3.5088   32.3037 N.pl3   1  UNL1       -0.2744
     14 C           7.1083   -4.3992   31.2928 C.2     1  UNL1        0.0822
     15 C           7.5553   -5.0768   30.0315 C.2     1  UNL1        0.0822
     16 N           7.7592   -5.4951   28.6055 N.pl3   1  UNL1       -0.2744
     17 C           7.0996   -4.6047   29.6164 C.2     1  UNL1        0.0822
     18 C           6.6526   -3.9272   30.8778 C.2     1  UNL1        0.0822
     19 C           7.7061   -5.6258   27.1122 C.3     1  UNL1        0.1815
     20 C           7.3996   -5.4600   25.6532 C.2     1  UNL1        0.2467
     21 O           8.2902   -6.5527   25.1406 O.2     1  UNL1       -0.2729
     22 N           6.8606   -5.0089   24.3281 N.am    1  UNL1       -0.2825
     23 C           6.1257   -4.3033   23.2270 C.ar    1  UNL1        0.0503
     24 C           5.2453   -3.3913   22.4252 C.ar    1  UNL1        0.0143
     25 C           4.2791   -2.3350   21.9772 C.ar    1  UNL1       -0.0029
     26 C           3.2931   -1.2064   21.9134 C.ar    1  UNL1       -0.0202
     27 C           4.1736   -2.1185   22.7153 C.ar    1  UNL1       -0.0029
     28 C           5.1397   -3.1748   23.1633 C.ar    1  UNL1        0.0143
     29 C           2.3544   -0.0825   22.2384 C.3     1  UNL1        0.0530
     30 C           1.5270    0.9603   22.9299 C.3     1  UNL1        0.1553
     31 C           0.8674    1.8507   23.9408 C.2     1  UNL1        0.2390
     32 O           0.0528    2.6666   22.9811 O.2     1  UNL1       -0.2736
     33 N           0.4204    2.5283   25.2022 N.am    1  UNL1       -0.2969
     34 H           3.5658    0.0579   34.1938 H       1  UNL1        0.1549
     35 H           7.3528   -5.6488   23.7646 H       1  UNL1        0.1549
     36 H          -0.1909    3.1798   24.7885 H       1  UNL1        0.1499
     37 N          -2.0217    4.1411   27.1883 N.am    1  UNL1       -0.2991
     38 C          -0.7680    4.0485   26.3701 C.2     1  UNL1        0.2409
     39 O          -0.4987    5.0577   25.2935 O.2     1  UNL1       -0.2733
     40 H          -2.1984    3.4787   27.8949 H       1  UNL1        0.1498
     41 C          -3.0061    5.2430   26.9301 C.3     1  UNL1        0.1164
     42 C          -6.4285    4.5812   24.0842 C.ar    1  UNL1        0.0813
     43 C          -5.1532    3.8097   23.9158 C.ar    1  UNL1        0.0071
     44 C          -4.0125    4.0303   24.8644 C.ar    1  UNL1       -0.0024
     45 C          -4.1470    5.0224   25.9814 C.ar    1  UNL1       -0.0026
     46 C          -5.4223    5.7938   26.1498 C.ar    1  UNL1       -0.0024
     47 C          -6.5631    5.5733   25.2011 C.ar    1  UNL1        0.0071
     48 N          -8.8571    3.7751   23.6344 N.2     1  UNL1       -0.0994
     49 C          -7.5694    4.3606   23.1355 C.2     1  UNL1        0.3093
     50 N          -7.4224    4.7256   21.6879 N.pl3   1  UNL1       -0.2466
     51 H          -9.6059    3.6303   23.0118 H       1  UNL1        0.3633
     52 H          -8.1712    4.5808   21.0653 H       1  UNL1        0.2884
     53 H          -6.5772    5.1099   21.3605 H       1  UNL1        0.2884
     54 N           0.8847    1.5436   21.7064 N.3     1  UNL1       -0.1753
     55 H           0.5461    2.4704   21.9650 H       1  UNL1        0.1489
     56 S           1.6826    1.7099   20.4472 S.O2    1  UNL1        0.0454
     57 O           2.6159    2.6419   21.1618 O.2     1  UNL1       -0.1572
     58 O           0.7494    0.7780   19.7326 O.2     1  UNL1       -0.1572
     59 C           2.4807    1.8763   19.1880 C.3     1  UNL1        0.1952
     60 C           3.4972    0.8429   18.8022 C.ar    1  UNL1        0.0029
     61 C           3.1742   -0.1678   17.7420 C.ar    1  UNL1       -0.0025
     62 C           4.1907   -1.2011   17.3563 C.ar    1  UNL1       -0.0003
     63 C           5.5303   -1.2237   18.0306 C.ar    1  UNL1       -0.0000
     64 C           5.8535   -0.2130   19.0909 C.ar    1  UNL1       -0.0003
     65 C           4.8368    0.8203   19.4766 C.ar    1  UNL1       -0.0025
@<TRIPOS>BOND
     1    48    49    2
     2    49    50    1
     3    49    42    1
     4    42    43   ar
     5    43    44   ar
     6    44    45   ar
     7    45    41    1
     8    41    37    1
     9    37    38   am
    10    38    39    2
    11     1    38    1
    12     1     2    1
    13     2     3    1
    14     3     4   ar
    15     4     5   ar
    16     5     6   ar
    17     6     7   ar
    18     7     8   ar
    19     6     9    1
    20     9    10   am
    21    10    11    2
    22    10    12    1
    23    12    13    1
    24    13    14    1
    25    14    15    2
    26    15    16    1
    27    16    17    1
    28    17    18    2
    29    16    19    1
    30    19    20    1
    31    20    21    2
    32    20    22   am
    33    22    23    1
    34    23    24   ar
    35    24    25   ar
    36    25    26   ar
    37    26    27   ar
    38    27    28   ar
    39    26    29    1
    40    29    30    1
    41    30    54    1
    42    54    56    1
    43    56    57    2
    44    56    58    2
    45    56    59    1
    46    59    60    1
    47    60    61   ar
    48    61    62   ar
    49    62    63   ar
    50    63    64   ar
    51    64    65   ar
    52    30    31    1
    53    31    32    2
    54    31    33   am
    55    45    46   ar
    56    46    47   ar
    57    47    42   ar
    58    33     1    1
    59     8     3   ar
    60    18    13    1
    61    28    23   ar
    62    65    60   ar
    63    48    51    1
    64    50    52    1
    65    50    53    1
    66    37    40    1
    67     9    34    1
    68    22    35    1
    69    54    55    1
    70    33    36    1
@<TRIPOS>MOLECULE
*****
 65 70 0 0 0
SMALL
GASTEIGER

@<TRIPOS>ATOM
      1 C           1.4550    0.9311   22.4501 C.3     1  UNL1        0.1530
      2 C           2.2933   -0.1277   21.7973 C.3     1  UNL1        0.0553
      3 C           3.2385   -1.2575   21.5144 C.ar    1  UNL1       -0.0199
      4 C           3.9127   -2.1732   20.5361 C.ar    1  UNL1       -0.0029
      5 C           4.8757   -3.2143   21.0244 C.ar    1  UNL1        0.0143
      6 C           5.1646   -3.3399   22.4910 C.ar    1  UNL1        0.0503
      7 C           4.4904   -2.4242   23.4692 C.ar    1  UNL1        0.0143
      8 C           3.5274   -1.3831   22.9809 C.ar    1  UNL1       -0.0029
      9 N           6.7848   -4.9838   24.0746 N.am    1  UNL1       -0.2825
     10 C           7.3085   -5.3975   25.4179 C.2     1  UNL1        0.2467
     11 O           8.2079   -6.5012   24.9460 O.2     1  UNL1       -0.2729
     12 C           7.5973   -5.5230   26.8845 C.3     1  UNL1        0.1815
     13 N           7.6316   -5.3518   28.3743 N.pl3   1  UNL1       -0.2744
     14 C           7.4092   -4.8957   29.7858 C.2     1  UNL1        0.0822
     15 C           6.9451   -4.1856   31.0229 C.2     1  UNL1        0.0822
     16 N           6.2709   -3.2699   32.0012 N.pl3   1  UNL1       -0.2744
     17 C           6.4934   -3.7261   30.5897 C.2     1  UNL1        0.0822
     18 C           6.9575   -4.4362   29.3526 C.2     1  UNL1        0.0822
     19 C           5.4326   -2.2111   32.6540 C.3     1  UNL1        0.1815
     20 C           4.4874   -1.0813   32.9369 C.2     1  UNL1        0.2467
     21 O           4.6504   -1.0583   34.4278 O.2     1  UNL1       -0.2729
     22 N           3.4996    0.0425   32.8306 N.am    1  UNL1       -0.2825
     23 C           2.5365    1.0838   32.3423 C.ar    1  UNL1        0.0503
     24 C           1.6639    1.9714   31.5053 C.ar    1  UNL1        0.0143
     25 C           0.9411    2.6450   30.3767 C.ar    1  UNL1       -0.0029
     26 C           0.4174    3.0588   29.0333 C.ar    1  UNL1       -0.0202
     27 C           1.2900    2.1711   29.8703 C.ar    1  UNL1       -0.0029
     28 C           2.0128    1.4974   30.9989 C.ar    1  UNL1        0.0143
     29 C           0.1285    3.1843   27.5668 C.3     1  UNL1        0.0530
     30 C           0.0942    3.0131   26.0769 C.3     1  UNL1        0.1553
     31 C           0.3167    2.5569   24.6654 C.2     1  UNL1        0.2390
     32 O          -0.6092    3.5297   23.9970 O.2     1  UNL1       -0.2736
     33 N           0.7808    1.8468   23.4284 N.am    1  UNL1       -0.2969
     34 H           7.2295   -5.5868   23.4360 H       1  UNL1        0.1549
     35 H           3.4373    0.2501   33.7909 H       1  UNL1        0.1549
     36 H           0.2527    2.3636   22.7778 H       1  UNL1        0.1499
     37 N          -0.0094    2.7233   21.2695 N.am    1  UNL1       -0.2991
     38 C           0.8263    1.4795   21.2034 C.2     1  UNL1        0.2409
     39 O           1.0336    0.7840   19.8907 O.2     1  UNL1       -0.2733
     40 H          -0.1454    3.1797   22.1312 H       1  UNL1        0.1498
     41 C          -0.6380    3.2716   20.0229 C.3     1  UNL1        0.1164
     42 C          -5.0882    3.9143   19.8423 C.ar    1  UNL1        0.0813
     43 C          -4.4457    3.4723   21.1237 C.ar    1  UNL1        0.0071
     44 C          -2.9624    3.2581   21.1838 C.ar    1  UNL1       -0.0024
     45 C          -2.1215    3.4858   19.9627 C.ar    1  UNL1       -0.0026
     46 C          -2.7640    3.9278   18.6814 C.ar    1  UNL1       -0.0024
     47 C          -4.2475    4.1420   18.6212 C.ar    1  UNL1        0.0071
     48 N          -7.2756    4.8226   20.9102 N.2     1  UNL1       -0.0994
     49 C          -6.5717    4.1285   19.7821 C.2     1  UNL1        0.3093
     50 N          -7.3512    3.6486   18.5937 N.pl3   1  UNL1       -0.2466
     51 H          -8.2492    4.9632   20.8707 H       1  UNL1        0.3633
     52 H          -8.3248    3.7892   18.5541 H       1  UNL1        0.2884
     53 H          -6.8892    3.1930   17.8532 H       1  UNL1        0.2884
     54 N          -0.8896    4.1049   25.7771 N.3     1  UNL1       -0.1753
     55 H          -1.0555    4.0836   24.7709 H       1  UNL1        0.1489
     56 S          -2.2362    4.1036   26.4380 S.O2    1  UNL1        0.0454
     57 O          -2.2756    2.6063   26.3544 O.2     1  UNL1       -0.1572
     58 O          -2.1967    5.6007   26.5216 O.2     1  UNL1       -0.1572
     59 C          -3.5827    4.1021   27.0990 C.3     1  UNL1        0.1952
     60 C          -4.7922    4.5589   26.3383 C.ar    1  UNL1        0.0029
     61 C          -5.1368    3.9218   25.0248 C.ar    1  UNL1       -0.0025
     62 C          -6.3462    4.3785   24.2641 C.ar    1  UNL1       -0.0003
     63 C          -7.2110    5.4724   24.8169 C.ar    1  UNL1       -0.0000
     64 C          -6.8664    6.1095   26.1305 C.ar    1  UNL1       -0.0003
     65 C          -5.6569    5.6527   26.8911 C.ar    1  UNL1       -0.0025
@<TRIPOS>BOND
     1    48    49    2
     2    49    50    1
     3    49    42    1
     4    42    43   ar
     5    43    44   ar
     6    44    45   ar
     7    45    41    1
     8    41    37    1
     9    37    38   am
    10    38    39    2
    11     1    38    1
    12     1     2    1
    13     2     3    1
    14     3     4   ar
    15     4     5   ar
    16     5     6   ar
    17     6     7   ar
    18     7     8   ar
    19     6     9    1
    20     9    10   am
    21    10    11    2
    22    10    12    1
    23    12    13    1
    24    13    14    1
    25    14    15    2
    26    15    16    1
    27    16    17    1
    28    17    18    2
    29    16    19    1
    30    19    20    1
    31    20    21    2
    32    20    22   am
    33    22    23    1
    34    23    24   ar
    35    24    25   ar
    36    25    26   ar
    37    26    27   ar
    38    27    28   ar
    39    26    29    1
    40    29    30    1
    41    30    54    1
    42    54    56    1
    43    56    57    2
    44    56    58    2
    45    56    59    1
    46    59    60    1
    47    60    61   ar
    48    61    62   ar
    49    62    63   ar
    50    63    64   ar
    51    64    65   ar
    52    30    31    1
    53    31    32    2
    54    31    33   am
    55    45    46   ar
    56    46    47   ar
    57    47    42   ar
    58    33     1    1
    59     8     3   ar
    60    18    13    1
    61    28    23   ar
    62    65    60   ar
    63    48    51    1
    64    50    52    1
    65    50    53    1
    66    37    40    1
    67     9    34    1
    68    22    35    1
    69    54    55    1
    70    33    36    1
@<TRIPOS>MOLECULE
*****
 65 70 0 0 0
SMALL
GASTEIGER

@<TRIPOS>ATOM
      1 C           0.7988    2.2995   27.3064 C.3     1  UNL1        0.1530
      2 C           0.7773    2.1023   25.8196 C.3     1  UNL1        0.0553
      3 C           1.0291    1.6374   24.4159 C.ar    1  UNL1       -0.0199
      4 C           0.7356    1.7215   22.9473 C.ar    1  UNL1       -0.0029
      5 C           1.4651    0.8322   21.9846 C.ar    1  UNL1        0.0143
      6 C           2.4882   -0.1412   22.4904 C.ar    1  UNL1        0.0503
      7 C           2.7817   -0.2252   23.9590 C.ar    1  UNL1        0.0143
      8 C           2.0521    0.6640   24.9217 C.ar    1  UNL1       -0.0029
      9 N           4.1799   -2.0452   21.3295 N.am    1  UNL1       -0.2825
     10 C           5.2333   -3.1058   21.4548 C.2     1  UNL1        0.2467
     11 O           5.3493   -3.4396   19.9971 O.2     1  UNL1       -0.2729
     12 C           6.2563   -4.0792   21.9606 C.3     1  UNL1        0.1815
     13 N           7.1793   -4.8991   22.8126 N.pl3   1  UNL1       -0.2744
     14 C           7.9394   -5.5096   23.9526 C.2     1  UNL1        0.0822
     15 C           8.4848   -5.8692   25.3028 C.2     1  UNL1        0.0822
     16 N           8.7783   -5.9533   26.7714 N.pl3   1  UNL1       -0.2744
     17 C           8.0182   -5.3428   25.6315 C.2     1  UNL1        0.0822
     18 C           7.4728   -4.9832   24.2812 C.2     1  UNL1        0.0822
     19 C           8.7999   -5.7561   28.2582 C.3     1  UNL1        0.1815
     20 C           8.5481   -5.2912   29.6620 C.2     1  UNL1        0.2467
     21 O           9.5295   -6.1956   30.3468 O.2     1  UNL1       -0.2729
     22 N           8.0401   -4.5903   30.8870 N.am    1  UNL1       -0.2825
     23 C           7.3105   -3.7010   31.8498 C.ar    1  UNL1        0.0503
     24 C           6.4091   -2.6839   32.4846 C.ar    1  UNL1        0.0143
     25 C           5.3972   -1.6085   32.7484 C.ar    1  UNL1       -0.0029
     26 C           4.3439   -0.5480   32.6232 C.ar    1  UNL1       -0.0202
     27 C           5.2453   -1.5650   31.9882 C.ar    1  UNL1       -0.0029
     28 C           6.2572   -2.6404   31.7244 C.ar    1  UNL1        0.0143
     29 C           3.3208    0.4254   32.1173 C.3     1  UNL1        0.0530
     30 C           2.3978    1.2453   31.2653 C.3     1  UNL1        0.1553
     31 C           1.6377    1.8558   30.1253 C.2     1  UNL1        0.2390
     32 O           0.8151    2.8172   30.9311 O.2     1  UNL1       -0.2736
     33 N           1.0923    2.2154   28.7751 N.am    1  UNL1       -0.2969
     34 H           3.9904   -1.9934   20.3648 H       1  UNL1        0.1549
     35 H           8.5972   -5.0638   31.5463 H       1  UNL1        0.1549
     36 H           0.4590    2.9080   29.0726 H       1  UNL1        0.1499
     37 N          -1.5713    3.1799   26.7085 N.am    1  UNL1       -0.2991
     38 C          -0.2427    3.3767   27.3763 C.2     1  UNL1        0.2409
     39 O           0.0445    4.6507   28.1141 O.2     1  UNL1       -0.2733
     40 H          -1.7598    2.3437   26.2243 H       1  UNL1        0.1498
     41 C          -2.6127    4.2571   26.7785 C.3     1  UNL1        0.1164
     42 C          -6.1122    4.1905   23.9502 C.ar    1  UNL1        0.0813
     43 C          -6.1994    4.9627   25.2332 C.ar    1  UNL1        0.0071
     44 C          -5.0330    4.9849   26.1759 C.ar    1  UNL1       -0.0024
     45 C          -3.7792    4.2349   25.8357 C.ar    1  UNL1       -0.0026
     46 C          -3.6920    3.4627   24.5527 C.ar    1  UNL1       -0.0024
     47 C          -4.8585    3.4405   23.6099 C.ar    1  UNL1        0.0071
     48 N          -8.6441    3.8068   23.5121 N.2     1  UNL1       -0.0994
     49 C          -7.2787    4.1683   23.0074 C.2     1  UNL1        0.3093
     50 N          -7.0797    4.5076   21.5598 N.pl3   1  UNL1       -0.2466
     51 H          -9.4098    3.7923   22.8934 H       1  UNL1        0.3633
     52 H          -7.8453    4.4930   20.9410 H       1  UNL1        0.2884
     53 H          -6.1834    4.7449   21.2285 H       1  UNL1        0.2884
     54 N           1.7737    2.0473   32.3686 N.3     1  UNL1       -0.1753
     55 H           1.0542    1.4592   32.7893 H       1  UNL1        0.1489
     56 S           2.6221    2.5644   33.4923 S.O2    1  UNL1        0.0454
     57 O           1.6923    1.9320   34.4852 O.2     1  UNL1       -0.1572
     58 O           3.5518    3.1968   32.4995 O.2     1  UNL1       -0.1572
     59 C           3.4704    3.0815   34.6162 C.3     1  UNL1        0.1952
     60 C           4.5242    2.2049   35.2252 C.ar    1  UNL1        0.0029
     61 C           4.1894    1.3361   36.4013 C.ar    1  UNL1       -0.0025
     62 C           5.2431    0.4595   37.0103 C.ar    1  UNL1       -0.0003
     63 C           6.6318    0.4515   36.4433 C.ar    1  UNL1       -0.0000
     64 C           6.9667    1.3203   35.2672 C.ar    1  UNL1       -0.0003
     65 C           5.9128    2.1969   34.6582 C.ar    1  UNL1       -0.0025
@<TRIPOS>BOND
     1    48    49    2
     2    49    50    1
     3    49    42    1
     4    42    43   ar
     5    43    44   ar
     6    44    45   ar
     7    45    41    1
     8    41    37    1
     9    37    38   am
    10    38    39    2
    11     1    38    1
    12     1     2    1
    13     2     3    1
    14     3     4   ar
    15     4     5   ar
    16     5     6   ar
    17     6     7   ar
    18     7     8   ar
    19     6     9    1
    20     9    10   am
    21    10    11    2
    22    10    12    1
    23    12    13    1
    24    13    14    1
    25    14    15    2
    26    15    16    1
    27    16    17    1
    28    17    18    2
    29    16    19    1
    30    19    20    1
    31    20    21    2
    32    20    22   am
    33    22    23    1
    34    23    24   ar
    35    24    25   ar
    36    25    26   ar
    37    26    27   ar
    38    27    28   ar
    39    26    29    1
    40    29    30    1
    41    30    54    1
    42    54    56    1
    43    56    57    2
    44    56    58    2
    45    56    59    1
    46    59    60    1
    47    60    61   ar
    48    61    62   ar
    49    62    63   ar
    50    63    64   ar
    51    64    65   ar
    52    30    31    1
    53    31    32    2
    54    31    33   am
    55    45    46   ar
    56    46    47   ar
    57    47    42   ar
    58    33     1    1
    59     8     3   ar
    60    18    13    1
    61    28    23   ar
    62    65    60   ar
    63    48    51    1
    64    50    52    1
    65    50    53    1
    66    37    40    1
    67     9    34    1
    68    22    35    1
    69    54    55    1
    70    33    36    1
@<TRIPOS>MOLECULE
*****
 65 70 0 0 0
SMALL
GASTEIGER

@<TRIPOS>ATOM
      1 C           5.2117   -1.8311   28.4947 C.3     1  UNL1        0.1530
      2 C           6.1795   -2.4804   27.5504 C.3     1  UNL1        0.0553
      3 C           6.9188   -2.9607   26.3368 C.ar    1  UNL1       -0.0199
      4 C           8.0492   -3.7348   25.7262 C.ar    1  UNL1       -0.0029
      5 C           8.1993   -3.7926   24.2349 C.ar    1  UNL1        0.0143
      6 C           7.2189   -3.0762   23.3541 C.ar    1  UNL1        0.0503
      7 C           6.0885   -2.3021   23.9647 C.ar    1  UNL1        0.0143
      8 C           5.9384   -2.2444   25.4561 C.ar    1  UNL1       -0.0029
      9 N           6.8794   -2.7498   20.5949 N.am    1  UNL1       -0.2825
     10 C           6.1238   -2.1822   19.4300 C.2     1  UNL1        0.2467
     11 O           6.9847   -2.7519   18.3419 O.2     1  UNL1       -0.2729
     12 C           5.1434   -1.4658   18.5493 C.3     1  UNL1        0.1815
     13 N           4.0051   -0.6496   18.0127 N.pl3   1  UNL1       -0.2744
     14 C           2.7864    0.2109   17.8568 C.2     1  UNL1        0.0822
     15 C           1.5704    1.0571   18.0920 C.2     1  UNL1        0.0822
     16 N           0.4400    1.8312   18.7026 N.pl3   1  UNL1       -0.2744
     17 C           1.6587    0.9707   18.8586 C.2     1  UNL1        0.0822
     18 C           2.8746    0.1245   18.6233 C.2     1  UNL1        0.0822
     19 C          -0.5278    2.4805   19.6469 C.3     1  UNL1        0.1815
     20 C          -1.2671    2.9608   20.8605 C.2     1  UNL1        0.2467
     21 O          -2.3356    3.7337   20.1457 O.2     1  UNL1       -0.2729
     22 N          -1.7275    3.2393   22.2607 N.am    1  UNL1       -0.2825
     23 C          -1.8776    3.2971   23.7521 C.ar    1  UNL1        0.0503
     24 C          -1.7071    3.1301   25.2330 C.ar    1  UNL1        0.0143
     25 C          -1.2277    2.7499   26.6025 C.ar    1  UNL1       -0.0029
     26 C          -0.4721    2.1823   27.7674 C.ar    1  UNL1       -0.0202
     27 C          -0.6426    2.3492   26.2864 C.ar    1  UNL1       -0.0029
     28 C          -1.1220    2.7295   24.9169 C.ar    1  UNL1        0.0143
     29 C           0.5082    1.4659   28.6481 C.3     1  UNL1        0.0530
     30 C           1.6466    0.6497   29.1847 C.3     1  UNL1        0.1553
     31 C           2.8652   -0.2108   29.3406 C.2     1  UNL1        0.2390
     32 O           2.8755   -0.2659   30.8397 O.2     1  UNL1       -0.2736
     33 N           4.0812   -1.0570   29.1053 N.am    1  UNL1       -0.2969
     34 H           7.6198   -3.2567   20.1899 H       1  UNL1        0.1549
     35 H          -2.5077    3.7943   22.0314 H       1  UNL1        0.1549
     36 H           4.2963   -1.2381   30.0488 H       1  UNL1        0.1499
     37 N           5.7476   -1.4664   31.0106 N.am    1  UNL1       -0.2991
     38 C           5.8345   -2.3091   29.7728 C.2     1  UNL1        0.2409
     39 O           6.5442   -3.6300   29.8131 O.2     1  UNL1       -0.2733
     40 H           5.2818   -0.5994   30.9841 H       1  UNL1        0.1498
     41 C           6.3704   -1.9444   32.2887 C.3     1  UNL1        0.1164
     42 C           5.4062    0.1177   36.1704 C.ar    1  UNL1        0.0813
     43 C           6.8062    0.1481   35.6326 C.ar    1  UNL1        0.0071
     44 C           7.1275   -0.5393   34.3387 C.ar    1  UNL1       -0.0024
     45 C           6.0490   -1.2570   33.5826 C.ar    1  UNL1       -0.0026
     46 C           4.6491   -1.2874   34.1205 C.ar    1  UNL1       -0.0024
     47 C           4.3277   -0.6000   35.4144 C.ar    1  UNL1        0.0071
     48 N           6.0949    1.7115   38.1032 N.2     1  UNL1       -0.0994
     49 C           5.0848    0.8051   37.4644 C.2     1  UNL1        0.3093
     50 N           3.7532    0.5861   38.1195 N.pl3   1  UNL1       -0.2466
     51 H           5.8839    2.1626   38.9524 H       1  UNL1        0.3633
     52 H           3.5422    1.0372   38.9687 H       1  UNL1        0.2884
     53 H           3.0902   -0.0088   37.7002 H       1  UNL1        0.2884
     54 N           1.3387    0.8193   30.6429 N.3     1  UNL1       -0.1753
     55 H           2.1349    0.4429   31.1576 H       1  UNL1        0.1489
     56 S           1.0708    2.1864   31.1989 S.O2    1  UNL1        0.0454
     57 O          -0.2485    1.7111   31.7316 O.2     1  UNL1       -0.1572
     58 O           2.3899    2.6617   30.6662 O.2     1  UNL1       -0.1572
     59 C           0.8027    3.5535   31.7549 C.3     1  UNL1        0.1952
     60 C           1.1382    3.8610   33.1843 C.ar    1  UNL1        0.0029
     61 C           2.0363    2.9420   33.9582 C.ar    1  UNL1       -0.0025
     62 C           2.3718    3.2494   35.3874 C.ar    1  UNL1       -0.0003
     63 C           1.8093    4.4758   36.0429 C.ar    1  UNL1       -0.0000
     64 C           0.9112    5.3948   35.2689 C.ar    1  UNL1       -0.0003
     65 C           0.5757    5.0873   33.8396 C.ar    1  UNL1       -0.0025
@<TRIPOS>BOND
     1    48    49    2
     2    49    50    1
     3    49    42    1
     4    42    43   ar
     5    43    44   ar
     6    44    45   ar
     7    45    41    1
     8    41    37    1
     9    37    38   am
    10    38    39    2
    11     1    38    1
    12     1     2    1
    13     2     3    1
    14     3     4   ar
    15     4     5   ar
    16     5     6   ar
    17     6     7   ar
    18     7     8   ar
    19     6     9    1
    20     9    10   am
    21    10    11    2
    22    10    12    1
    23    12    13    1
    24    13    14    1
    25    14    15    2
    26    15    16    1
    27    16    17    1
    28    17    18    2
    29    16    19    1
    30    19    20    1
    31    20    21    2
    32    20    22   am
    33    22    23    1
    34    23    24   ar
    35    24    25   ar
    36    25    26   ar
    37    26    27   ar
    38    27    28   ar
    39    26    29    1
    40    29    30    1
    41    30    54    1
    42    54    56    1
    43    56    57    2
    44    56    58    2
    45    56    59    1
    46    59    60    1
    47    60    61   ar
    48    61    62   ar
    49    62    63   ar
    50    63    64   ar
    51    64    65   ar
    52    30    31    1
    53    31    32    2
    54    31    33   am
    55    45    46   ar
    56    46    47   ar
    57    47    42   ar
    58    33     1    1
    59     8     3   ar
    60    18    13    1
    61    28    23   ar
    62    65    60   ar
    63    48    51    1
    64    50    52    1
    65    50    53    1
    66    37    40    1
    67     9    34    1
    68    22    35    1
    69    54    55    1
    70    33    36    1
@<TRIPOS>MOLECULE
*****
 65 70 0 0 0
SMALL
GASTEIGER

@<TRIPOS>ATOM
      1 C           2.1891    3.1237   30.3023 C.3     1  UNL1        0.1530
      2 C           1.1530    3.9283   29.5748 C.3     1  UNL1        0.0553
      3 C           0.2202    4.5010   28.5492 C.ar    1  UNL1       -0.0199
      4 C          -0.8484    5.4827   28.1695 C.ar    1  UNL1       -0.0029
      5 C          -1.3953    5.4929   26.7728 C.ar    1  UNL1        0.0143
      6 C          -0.8736    4.5216   25.7559 C.ar    1  UNL1        0.0503
      7 C           0.1951    3.5399   26.1356 C.ar    1  UNL1        0.0143
      8 C           0.7420    3.5296   27.5323 C.ar    1  UNL1       -0.0029
      9 N          -1.3978    3.9763   23.0609 N.am    1  UNL1       -0.2825
     10 C          -1.1353    3.1863   21.8131 C.2     1  UNL1        0.2467
     11 O          -2.1282    3.8809   20.9290 O.2     1  UNL1       -0.2729
     12 C          -0.6135    2.2149   20.7961 C.3     1  UNL1        0.1815
     13 N           0.1319    1.1283   20.0793 N.pl3   1  UNL1       -0.2744
     14 C           1.0501    0.0008   19.7114 C.2     1  UNL1        0.0822
     15 C           2.0786   -1.0911   19.7175 C.2     1  UNL1        0.0822
     16 N           3.1473   -2.0728   20.0972 N.pl3   1  UNL1       -0.2744
     17 C           2.2291   -0.9452   20.4651 C.2     1  UNL1        0.0822
     18 C           1.2006    0.1467   20.4590 C.2     1  UNL1        0.0822
     19 C           4.1833   -2.8774   20.8247 C.3     1  UNL1        0.1815
     20 C           5.1161   -3.4501   21.8504 C.2     1  UNL1        0.2467
     21 O           5.7552   -4.4880   20.9760 O.2     1  UNL1       -0.2729
     22 N           5.8821   -3.7519   23.1042 N.am    1  UNL1       -0.2825
     23 C           6.4290   -3.7622   24.5010 C.ar    1  UNL1        0.0503
     24 C           6.7196   -3.4803   25.9453 C.ar    1  UNL1        0.0143
     25 C           6.7342   -2.9254   27.3388 C.ar    1  UNL1       -0.0029
     26 C           6.4717   -2.1354   28.5866 C.ar    1  UNL1       -0.0202
     27 C           6.1810   -2.4173   27.1422 C.ar    1  UNL1       -0.0029
     28 C           6.1665   -2.9722   25.7487 C.ar    1  UNL1        0.0143
     29 C           5.9499   -1.1640   29.6035 C.3     1  UNL1        0.0530
     30 C           5.2045   -0.0775   30.3203 C.3     1  UNL1        0.1553
     31 C           4.2863    1.0501   30.6882 C.2     1  UNL1        0.2390
     32 O           4.7087    1.1871   32.1210 O.2     1  UNL1       -0.2736
     33 N           3.2578    2.1420   30.6821 N.am    1  UNL1       -0.2969
     34 H          -2.0992    4.6189   22.8074 H       1  UNL1        0.1549
     35 H           6.4327   -4.4848   22.7452 H       1  UNL1        0.1549
     36 H           3.3588    2.4189   31.6215 H       1  UNL1        0.1499
     37 N           3.2914    4.0937   32.4457 N.am    1  UNL1       -0.2991
     38 C           2.0640    3.8019   31.6344 C.2     1  UNL1        0.2409
     39 O           0.7114    4.1883   32.1551 O.2     1  UNL1       -0.2733
     40 H           4.1792    3.8400   32.1039 H       1  UNL1        0.1498
     41 C           3.1663    4.7719   33.7777 C.3     1  UNL1        0.1164
     42 C           2.3661    2.3365   37.4762 C.ar    1  UNL1        0.0813
     43 C           1.7405    3.6909   37.3201 C.ar    1  UNL1        0.0071
     44 C           2.0073    4.5026   36.0873 C.ar    1  UNL1       -0.0024
     45 C           2.8996    3.9601   35.0106 C.ar    1  UNL1       -0.0026
     46 C           3.5251    2.6057   35.1666 C.ar    1  UNL1       -0.0024
     47 C           3.2584    1.7939   36.3995 C.ar    1  UNL1        0.0071
     48 N           3.2167    0.7702   39.3665 N.2     1  UNL1       -0.0994
     49 C           2.0993    1.5247   38.7090 C.2     1  UNL1        0.3093
     50 N           0.7152    1.4675   39.2844 N.pl3   1  UNL1       -0.2466
     51 H           3.0416    0.2374   40.1756 H       1  UNL1        0.3633
     52 H           0.5401    0.9347   40.0936 H       1  UNL1        0.2884
     53 H          -0.0182    1.9627   38.8529 H       1  UNL1        0.2884
     54 N           5.8666   -0.2349   31.6570 N.3     1  UNL1       -0.1753
     55 H           5.1648   -0.0083   32.3617 H       1  UNL1        0.1489
     56 S           6.4625   -1.5547   32.0481 S.O2    1  UNL1        0.0454
     57 O           7.8261   -0.9301   32.0780 O.2     1  UNL1       -0.1572
     58 O           5.0991   -2.1793   32.0182 O.2     1  UNL1       -0.1572
     59 C           7.0586   -2.8745   32.4392 C.3     1  UNL1        0.1952
     60 C           7.6079   -3.7909   31.3864 C.ar    1  UNL1        0.0029
     61 C           8.9849   -3.5624   30.8374 C.ar    1  UNL1       -0.0025
     62 C           9.5342   -4.4788   29.7846 C.ar    1  UNL1       -0.0003
     63 C           8.7064   -5.6238   29.2807 C.ar    1  UNL1       -0.0000
     64 C           7.3292   -5.8523   29.8297 C.ar    1  UNL1       -0.0003
     65 C           6.7801   -4.9358   30.8826 C.ar    1  UNL1       -0.0025
@<TRIPOS>BOND
     1    48    49    2
     2    49    50    1
     3    49    42    1
     4    42    43   ar
     5    43    44   ar
     6    44    45   ar
     7    45    41    1
     8    41    37    1
     9    37    38   am
    10    38    39    2
    11     1    38    1
    12     1     2    1
    13     2     3    1
    14     3     4   ar
    15     4     5   ar
    16     5     6   ar
    17     6     7   ar
    18     7     8   ar
    19     6     9    1
    20     9    10   am
    21    10    11    2
    22    10    12    1
    23    12    13    1
    24    13    14    1
    25    14    15    2
    26    15    16    1
    27    16    17    1
    28    17    18    2
    29    16    19    1
    30    19    20    1
    31    20    21    2
    32    20    22   am
    33    22    23    1
    34    23    24   ar
    35    24    25   ar
    36    25    26   ar
    37    26    27   ar
    38    27    28   ar
    39    26    29    1
    40    29    30    1
    41    30    54    1
    42    54    56    1
    43    56    57    2
    44    56    58    2
    45    56    59    1
    46    59    60    1
    47    60    61   ar
    48    61    62   ar
    49    62    63   ar
    50    63    64   ar
    51    64    65   ar
    52    30    31    1
    53    31    32    2
    54    31    33   am
    55    45    46   ar
    56    46    47   ar
    57    47    42   ar
    58    33     1    1
    59     8     3   ar
    60    18    13    1
    61    28    23   ar
    62    65    60   ar
    63    48    51    1
    64    50    52    1
    65    50    53    1
    66    37    40    1
    67     9    34    1
    68    22    35    1
    69    54    55    1
    70    33    36    1
@<TRIPOS>MOLECULE
*****
 65 70 0 0 0
SMALL
GASTEIGER

@<TRIPOS>ATOM
      1 C           4.6292    0.8553   31.0191 C.3     1  UNL1        0.1530
      2 C           3.5778    1.9251   31.0095 C.3     1  UNL1        0.0553
      3 C           2.4892    2.8833   30.6264 C.ar    1  UNL1       -0.0199
      4 C           1.5467    3.9918   30.9909 C.ar    1  UNL1       -0.0029
      5 C           0.6037    4.5429   29.9629 C.ar    1  UNL1        0.0143
      6 C           0.6031    3.9855   28.5703 C.ar    1  UNL1        0.0503
      7 C           1.5456    2.8770   28.2057 C.ar    1  UNL1        0.0143
      8 C           2.4886    2.3259   29.2338 C.ar    1  UNL1       -0.0029
      9 N          -0.8205    4.4955   26.2147 N.am    1  UNL1       -0.2825
     10 C          -1.1028    4.2051   24.7704 C.2     1  UNL1        0.2467
     11 O          -2.1820    5.2278   24.5724 O.2     1  UNL1       -0.2729
     12 C          -1.1034    3.6477   23.3778 C.3     1  UNL1        0.1815
     13 N          -0.8221    2.8612   22.1319 N.pl3   1  UNL1       -0.2744
     14 C          -0.2783    1.8994   21.1174 C.2     1  UNL1        0.0822
     15 C           0.4910    0.8277   20.4035 C.2     1  UNL1        0.0822
     16 N           1.4335   -0.2808   20.0390 N.pl3   1  UNL1       -0.2744
     17 C           0.8897    0.6810   21.0534 C.2     1  UNL1        0.0822
     18 C           0.1203    1.7527   21.7673 C.2     1  UNL1        0.0822
     19 C           2.4848   -1.3506   20.0486 C.3     1  UNL1        0.1815
     20 C           3.5735   -2.3088   20.4317 C.2     1  UNL1        0.2467
     21 O           3.7150   -2.9865   19.1010 O.2     1  UNL1       -0.2729
     22 N           4.6251   -3.0901   21.1622 N.am    1  UNL1       -0.2825
     23 C           5.5682   -3.6413   22.1903 C.ar    1  UNL1        0.0503
     24 C           6.3383   -3.9246   23.4459 C.ar    1  UNL1        0.0143
     25 C           6.8831   -3.9210   24.8434 C.ar    1  UNL1       -0.0029
     26 C           7.1655   -3.6307   26.2877 C.ar    1  UNL1       -0.0202
     27 C           6.3953   -3.3473   25.0321 C.ar    1  UNL1       -0.0029
     28 C           5.8505   -3.3509   23.6346 C.ar    1  UNL1        0.0143
     29 C           7.1661   -3.0733   27.6803 C.3     1  UNL1        0.0530
     30 C           6.8848   -2.2868   28.9263 C.3     1  UNL1        0.1553
     31 C           6.3410   -1.3250   29.9407 C.2     1  UNL1        0.2390
     32 O           7.2050   -1.7459   31.0925 O.2     1  UNL1       -0.2736
     33 N           5.5717   -0.2533   30.6546 N.am    1  UNL1       -0.2969
     34 H          -1.4407    5.2230   26.4497 H       1  UNL1        0.1549
     35 H           4.8982   -3.6688   20.4140 H       1  UNL1        0.1549
     36 H           6.0069   -0.3459   31.5328 H       1  UNL1        0.1499
     37 N           5.1730    2.3693   33.0592 N.am    1  UNL1       -0.2991
     38 C           5.0463    1.0035   32.4523 C.2     1  UNL1        0.2409
     39 O           5.3368   -0.2143   33.2785 O.2     1  UNL1       -0.2733
     40 H           4.9823    3.1685   32.5169 H       1  UNL1        0.1498
     41 C           5.5902    2.5174   34.4924 C.3     1  UNL1        0.1164
     42 C           2.7021    1.5075   37.7923 C.ar    1  UNL1        0.0813
     43 C           2.5343    2.7771   37.0112 C.ar    1  UNL1        0.0071
     44 C           3.4969    3.1136   35.9113 C.ar    1  UNL1       -0.0024
     45 C           4.6275    2.1808   35.5923 C.ar    1  UNL1       -0.0026
     46 C           4.7953    0.9112   36.3734 C.ar    1  UNL1       -0.0024
     47 C           3.8326    0.5746   37.4734 C.ar    1  UNL1        0.0071
     48 N           2.1158    0.1606   39.9352 N.2     1  UNL1       -0.0994
     49 C           1.7395    1.1708   38.8923 C.2     1  UNL1        0.3093
     50 N           0.4003    1.8444   38.9493 N.pl3   1  UNL1       -0.2466
     51 H           1.4840   -0.0604   40.6571 H       1  UNL1        0.3633
     52 H          -0.2315    1.6235   39.6712 H       1  UNL1        0.2884
     53 H           0.1533    2.5075   38.2648 H       1  UNL1        0.2884
     54 N           7.8908   -2.9588   29.8131 N.3     1  UNL1       -0.1753
     55 H           7.7069   -2.6370   30.7634 H       1  UNL1        0.1489
     56 S           7.9600   -4.4562   29.8687 S.O2    1  UNL1        0.0454
     57 O           9.3935   -4.4061   29.4295 O.2     1  UNL1       -0.1572
     58 O           6.5266   -4.5062   30.3079 O.2     1  UNL1       -0.1572
     59 C           8.0293   -5.9536   29.9242 C.3     1  UNL1        0.1952
     60 C           8.1933   -6.7442   28.6601 C.ar    1  UNL1        0.0029
     61 C           9.3719   -7.6570   28.4939 C.ar    1  UNL1       -0.0025
     62 C           9.5358   -8.4476   27.2299 C.ar    1  UNL1       -0.0003
     63 C           8.5211   -8.3256   26.1319 C.ar    1  UNL1       -0.0000
     64 C           7.3424   -7.4127   26.2981 C.ar    1  UNL1       -0.0003
     65 C           7.1786   -6.6221   27.5622 C.ar    1  UNL1       -0.0025
@<TRIPOS>BOND
     1    48    49    2
     2    49    50    1
     3    49    42    1
     4    42    43   ar
     5    43    44   ar
     6    44    45   ar
     7    45    41    1
     8    41    37    1
     9    37    38   am
    10    38    39    2
    11     1    38    1
    12     1     2    1
    13     2     3    1
    14     3     4   ar
    15     4     5   ar
    16     5     6   ar
    17     6     7   ar
    18     7     8   ar
    19     6     9    1
    20     9    10   am
    21    10    11    2
    22    10    12    1
    23    12    13    1
    24    13    14    1
    25    14    15    2
    26    15    16    1
    27    16    17    1
    28    17    18    2
    29    16    19    1
    30    19    20    1
    31    20    21    2
    32    20    22   am
    33    22    23    1
    34    23    24   ar
    35    24    25   ar
    36    25    26   ar
    37    26    27   ar
    38    27    28   ar
    39    26    29    1
    40    29    30    1
    41    30    54    1
    42    54    56    1
    43    56    57    2
    44    56    58    2
    45    56    59    1
    46    59    60    1
    47    60    61   ar
    48    61    62   ar
    49    62    63   ar
    50    63    64   ar
    51    64    65   ar
    52    30    31    1
    53    31    32    2
    54    31    33   am
    55    45    46   ar
    56    46    47   ar
    57    47    42   ar
    58    33     1    1
    59     8     3   ar
    60    18    13    1
    61    28    23   ar
    62    65    60   ar
    63    48    51    1
    64    50    52    1
    65    50    53    1
    66    37    40    1
    67     9    34    1
    68    22    35    1
    69    54    55    1
    70    33    36    1
@<TRIPOS>MOLECULE
*****
 65 70 0 0 0
SMALL
GASTEIGER

@<TRIPOS>ATOM
      1 C           5.8070   -1.6730   27.3945 C.3     1  UNL1        0.1530
      2 C           5.6018   -0.8905   28.6577 C.3     1  UNL1        0.0553
      3 C           5.1256    0.0731   29.7040 C.ar    1  UNL1       -0.0199
      4 C           5.2056    0.6212   31.0979 C.ar    1  UNL1       -0.0029
      5 C           4.3007    1.7420   31.5162 C.ar    1  UNL1        0.0143
      6 C           3.3158    2.3147   30.5405 C.ar    1  UNL1        0.0503
      7 C           3.2358    1.7666   29.1465 C.ar    1  UNL1        0.0143
      8 C           4.1407    0.6458   28.7283 C.ar    1  UNL1       -0.0029
      9 N           1.3816    4.3369   30.6084 N.am    1  UNL1       -0.2825
     10 C           0.3070    5.1395   29.9368 C.2     1  UNL1        0.2467
     11 O          -0.0366    6.0200   31.1014 O.2     1  UNL1       -0.2729
     12 C          -0.6779    5.7122   28.9610 C.3     1  UNL1        0.1815
     13 N          -1.5059    6.0160   27.7477 N.pl3   1  UNL1       -0.2744
     14 C          -2.1207    6.0302   26.3796 C.2     1  UNL1        0.0822
     15 C          -2.4804    5.7538   24.9498 C.2     1  UNL1        0.0822
     16 N          -2.5604    5.2058   23.5559 N.pl3   1  UNL1       -0.2744
     17 C          -1.9456    5.1916   24.9240 C.2     1  UNL1        0.0822
     18 C          -1.5859    5.4679   26.3538 C.2     1  UNL1        0.0822
     19 C          -2.3553    4.4232   22.2927 C.3     1  UNL1        0.1815
     20 C          -1.8790    3.4597   21.2464 C.2     1  UNL1        0.2467
     21 O          -2.7933    3.9017   20.1424 O.2     1  UNL1       -0.2729
     22 N          -1.1641    2.3807   20.4883 N.am    1  UNL1       -0.2825
     23 C          -0.2592    1.2599   20.0700 C.ar    1  UNL1        0.0503
     24 C           0.7740    0.1736   20.0201 C.ar    1  UNL1        0.0143
     25 C           1.8650   -0.8042   20.3419 C.ar    1  UNL1       -0.0029
     26 C           2.9396   -1.6068   21.0136 C.ar    1  UNL1       -0.0202
     27 C           1.9064   -0.5205   21.0635 C.ar    1  UNL1       -0.0029
     28 C           0.8154    0.4573   20.7417 C.ar    1  UNL1        0.0143
     29 C           3.9245   -2.1795   21.9893 C.3     1  UNL1        0.0530
     30 C           4.7525   -2.4833   23.2026 C.3     1  UNL1        0.1553
     31 C           5.3673   -2.4975   24.5707 C.2     1  UNL1        0.2390
     32 O           6.3448   -3.6106   24.3346 O.2     1  UNL1       -0.2736
     33 N           5.7270   -2.2212   26.0005 N.am    1  UNL1       -0.2969
     34 H           1.4307    4.6996   31.5223 H       1  UNL1        0.1549
     35 H          -1.6417    2.4860   19.6338 H       1  UNL1        0.1549
     36 H           6.4301   -2.9044   26.0905 H       1  UNL1        0.1499
     37 N           8.0648   -2.8998   27.0107 N.am    1  UNL1       -0.2991
     38 C           6.8992   -2.5709   27.8955 C.2     1  UNL1        0.2409
     39 O           6.8256   -3.1399   29.2814 O.2     1  UNL1       -0.2733
     40 H           8.1131   -2.5263   26.1010 H       1  UNL1        0.1498
     41 C           9.1569   -3.7977   27.5117 C.3     1  UNL1        0.1164
     42 C           8.5279   -8.2517   27.6367 C.ar    1  UNL1        0.0813
     43 C           9.0844   -7.5390   28.8335 C.ar    1  UNL1        0.0071
     44 C           9.2941   -6.0544   28.7918 C.ar    1  UNL1       -0.0024
     45 C           8.9472   -5.2824   27.5534 C.ar    1  UNL1       -0.0026
     46 C           8.3907   -5.9951   26.3566 C.ar    1  UNL1       -0.0024
     47 C           8.1810   -7.4798   26.3982 C.ar    1  UNL1        0.0071
     48 N           9.4996  -10.6604   27.7001 N.2     1  UNL1       -0.0994
     49 C           8.3182   -9.7364   27.6783 C.2     1  UNL1        0.3093
     50 N           6.9270  -10.2972   27.6982 N.pl3   1  UNL1       -0.2466
     51 H           9.3620  -11.6348   27.7274 H       1  UNL1        0.3633
     52 H           6.7894  -11.2717   27.7256 H       1  UNL1        0.2884
     53 H           6.1516   -9.6908   27.6839 H       1  UNL1        0.2884
     54 N           5.5694   -3.5926   22.6093 N.3     1  UNL1       -0.1753
     55 H           5.0194   -4.4464   22.7042 H       1  UNL1        0.1489
     56 S           6.0087   -3.5174   21.1771 S.O2    1  UNL1        0.0454
     57 O           5.0472   -4.6137   20.8247 O.2     1  UNL1       -0.1572
     58 O           6.9700   -2.4213   21.5294 O.2     1  UNL1       -0.1572
     59 C           6.4478   -3.4423   19.7447 C.3     1  UNL1        0.1952
     60 C           5.9696   -2.3204   18.8714 C.ar    1  UNL1        0.0029
     61 C           6.8615   -1.1440   18.6060 C.ar    1  UNL1       -0.0025
     62 C           6.3833   -0.0222   17.7328 C.ar    1  UNL1       -0.0003
     63 C           5.0131   -0.0767   17.1248 C.ar    1  UNL1       -0.0000
     64 C           4.1211   -1.2531   17.3902 C.ar    1  UNL1       -0.0003
     65 C           4.5994   -2.3750   18.2635 C.ar    1  UNL1       -0.0025
@<TRIPOS>BOND
     1    48    49    2
     2    49    50    1
     3    49    42    1
     4    42    43   ar
     5    43    44   ar
     6    44    45   ar
     7    45    41    1
     8    41    37    1
     9    37    38   am
    10    38    39    2
    11     1    38    1
    12     1     2    1
    13     2     3    1
    14     3     4   ar
    15     4     5   ar
    16     5     6   ar
    17     6     7   ar
    18     7     8   ar
    19     6     9    1
    20     9    10   am
    21    10    11    2
    22    10    12    1
    23    12    13    1
    24    13    14    1
    25    14    15    2
    26    15    16    1
    27    16    17    1
    28    17    18    2
    29    16    19    1
    30    19    20    1
    31    20    21    2
    32    20    22   am
    33    22    23    1
    34    23    24   ar
    35    24    25   ar
    36    25    26   ar
    37    26    27   ar
    38    27    28   ar
    39    26    29    1
    40    29    30    1
    41    30    54    1
    42    54    56    1
    43    56    57    2
    44    56    58    2
    45    56    59    1
    46    59    60    1
    47    60    61   ar
    48    61    62   ar
    49    62    63   ar
    50    63    64   ar
    51    64    65   ar
    52    30    31    1
    53    31    32    2
    54    31    33   am
    55    45    46   ar
    56    46    47   ar
    57    47    42   ar
    58    33     1    1
    59     8     3   ar
    60    18    13    1
    61    28    23   ar
    62    65    60   ar
    63    48    51    1
    64    50    52    1
    65    50    53    1
    66    37    40    1
    67     9    34    1
    68    22    35    1
    69    54    55    1
    70    33    36    1
@<TRIPOS>MOLECULE
*****
 65 70 0 0 0
SMALL
GASTEIGER

@<TRIPOS>ATOM
      1 C           4.3273   -0.6674   30.1557 C.3     1  UNL1        0.1530
      2 C           4.0166   -0.0060   31.4657 C.3     1  UNL1        0.0553
      3 C           3.4703    0.8732   32.5513 C.ar    1  UNL1       -0.0199
      4 C           3.4165    1.2717   33.9964 C.ar    1  UNL1       -0.0029
      5 C           2.5240    2.3959   34.4316 C.ar    1  UNL1        0.0143
      6 C           1.6852    3.1216   33.4217 C.ar    1  UNL1        0.0503
      7 C           1.7390    2.7231   31.9767 C.ar    1  UNL1        0.0143
      8 C           2.6315    1.5989   31.5414 C.ar    1  UNL1       -0.0029
      9 N          -0.1461    5.2373   33.4956 N.am    1  UNL1       -0.2825
     10 C          -1.0977    6.1659   32.8012 C.2     1  UNL1        0.2467
     11 O          -1.5299    6.9428   34.0093 O.2     1  UNL1       -0.2729
     12 C          -1.9365    6.8916   31.7913 C.3     1  UNL1        0.1815
     13 N          -2.6053    7.3650   30.5348 N.pl3   1  UNL1       -0.2744
     14 C          -3.0585    7.5539   29.1175 C.2     1  UNL1        0.0822
     15 C          -3.2653    7.4454   27.6358 C.2     1  UNL1        0.0822
     16 N          -3.2115    7.0469   26.1907 N.pl3   1  UNL1       -0.2744
     17 C          -2.7583    6.8580   27.6081 C.2     1  UNL1        0.0822
     18 C          -2.5515    6.9665   29.0898 C.2     1  UNL1        0.0822
     19 C          -2.9009    6.3855   24.8808 C.3     1  UNL1        0.1815
     20 C          -2.3545    5.5063   23.7952 C.2     1  UNL1        0.2467
     21 O          -3.1148    6.1111   22.6522 O.2     1  UNL1       -0.2729
     22 N          -1.6097    4.4693   23.0079 N.am    1  UNL1       -0.2825
     23 C          -0.7171    3.3450   22.5726 C.ar    1  UNL1        0.0503
     24 C           0.2623    2.2102   22.5191 C.ar    1  UNL1        0.0143
     25 C           1.2619    1.1422   22.8508 C.ar    1  UNL1       -0.0029
     26 C           2.2135    0.2136   23.5452 C.ar    1  UNL1       -0.0202
     27 C           1.2340    1.3485   23.5988 C.ar    1  UNL1       -0.0029
     28 C           0.2345    2.4165   23.2671 C.ar    1  UNL1        0.0143
     29 C           3.0523   -0.5121   24.5551 C.3     1  UNL1        0.0530
     30 C           3.7211   -0.9855   25.8115 C.3     1  UNL1        0.1553
     31 C           4.1743   -1.1744   27.2289 C.2     1  UNL1        0.2390
     32 O           5.1184   -2.3137   26.9823 O.2     1  UNL1       -0.2736
     33 N           4.3811   -1.0659   28.7106 N.am    1  UNL1       -0.2969
     34 H          -0.1845    5.5022   34.4430 H       1  UNL1        0.1549
     35 H          -1.9811    4.6886   22.1229 H       1  UNL1        0.1549
     36 H           5.0362   -1.7951   28.8026 H       1  UNL1        0.1499
     37 N           6.3452   -2.2538   29.7538 N.am    1  UNL1       -0.2991
     38 C           5.3113   -1.6743   30.6732 C.2     1  UNL1        0.2409
     39 O           5.2614   -2.1018   32.1101 O.2     1  UNL1       -0.2733
     40 H           6.3780   -1.9732   28.8107 H       1  UNL1        0.1498
     41 C           7.3292   -3.2607   30.2714 C.3     1  UNL1        0.1164
     42 C           8.0792   -7.0586   27.9771 C.ar    1  UNL1        0.0813
     43 C           8.8637   -6.7670   29.2221 C.ar    1  UNL1        0.0071
     44 C           8.6136   -5.5011   29.9867 C.ar    1  UNL1       -0.0024
     45 C           7.5792   -4.5267   29.5066 C.ar    1  UNL1       -0.0026
     46 C           6.7948   -4.8182   28.2617 C.ar    1  UNL1       -0.0024
     47 C           7.0449   -6.0842   27.4970 C.ar    1  UNL1        0.0071
     48 N           9.4383   -8.3852   26.2042 N.2     1  UNL1       -0.0994
     49 C           8.3293   -8.3246   27.2124 C.2     1  UNL1        0.3093
     50 N           7.4702   -9.5300   27.4559 N.pl3   1  UNL1       -0.2466
     51 H           9.6024   -9.2161   25.7023 H       1  UNL1        0.3633
     52 H           7.6343  -10.3609   26.9539 H       1  UNL1        0.2884
     53 H           6.7424   -9.4902   28.1176 H       1  UNL1        0.2884
     54 N           4.5468   -2.0755   25.1950 N.3     1  UNL1       -0.1753
     55 H           3.9848   -2.9259   25.2294 H       1  UNL1        0.1489
     56 S           5.0379   -1.9378   23.7843 S.O2    1  UNL1        0.0454
     57 O           5.8276   -0.7246   24.1777 O.2     1  UNL1       -0.1572
     58 O           4.2482   -3.1508   23.3910 O.2     1  UNL1       -0.1572
     59 C           5.5290   -1.8000   22.3737 C.3     1  UNL1        0.1952
     60 C           4.6933   -1.0827   21.3552 C.ar    1  UNL1        0.0029
     61 C           4.9549    0.3633   21.0544 C.ar    1  UNL1       -0.0025
     62 C           4.1193    1.0806   20.0360 C.ar    1  UNL1       -0.0003
     63 C           3.0221    0.3519   19.3184 C.ar    1  UNL1       -0.0000
     64 C           2.7604   -1.0942   19.6192 C.ar    1  UNL1       -0.0003
     65 C           3.5961   -1.8114   20.6377 C.ar    1  UNL1       -0.0025
@<TRIPOS>BOND
     1    48    49    2
     2    49    50    1
     3    49    42    1
     4    42    43   ar
     5    43    44   ar
     6    44    45   ar
     7    45    41    1
     8    41    37    1
     9    37    38   am
    10    38    39    2
    11     1    38    1
    12     1     2    1
    13     2     3    1
    14     3     4   ar
    15     4     5   ar
    16     5     6   ar
    17     6     7   ar
    18     7     8   ar
    19     6     9    1
    20     9    10   am
    21    10    11    2
    22    10    12    1
    23    12    13    1
    24    13    14    1
    25    14    15    2
    26    15    16    1
    27    16    17    1
    28    17    18    2
    29    16    19    1
    30    19    20    1
    31    20    21    2
    32    20    22   am
    33    22    23    1
    34    23    24   ar
    35    24    25   ar
    36    25    26   ar
    37    26    27   ar
    38    27    28   ar
    39    26    29    1
    40    29    30    1
    41    30    54    1
    42    54    56    1
    43    56    57    2
    44    56    58    2
    45    56    59    1
    46    59    60    1
    47    60    61   ar
    48    61    62   ar
    49    62    63   ar
    50    63    64   ar
    51    64    65   ar
    52    30    31    1
    53    31    32    2
    54    31    33   am
    55    45    46   ar
    56    46    47   ar
    57    47    42   ar
    58    33     1    1
    59     8     3   ar
    60    18    13    1
    61    28    23   ar
    62    65    60   ar
    63    48    51    1
    64    50    52    1
    65    50    53    1
    66    37    40    1
    67     9    34    1
    68    22    35    1
    69    54    55    1
    70    33    36    1
@<TRIPOS>MOLECULE
*****
 65 70 0 0 0
SMALL
GASTEIGER

@<TRIPOS>ATOM
      1 C           4.7315   -0.8190   26.9822 C.3     1  UNL1        0.1530
      2 C           5.4779   -1.5199   28.0784 C.3     1  UNL1        0.0553
      3 C           6.0377   -1.9595   29.3988 C.ar    1  UNL1       -0.0199
      4 C           6.9199   -2.8738   30.1960 C.ar    1  UNL1       -0.0029
      5 C           7.0071   -2.7211   31.6856 C.ar    1  UNL1        0.0143
      6 C           6.2120   -1.6541   32.3780 C.ar    1  UNL1        0.0503
      7 C           5.3298   -0.7398   31.5807 C.ar    1  UNL1        0.0143
      8 C           5.2426   -0.8925   30.0911 C.ar    1  UNL1       -0.0029
      9 N           5.8846   -0.8075   35.0259 N.am    1  UNL1       -0.2825
     10 C           5.2615    0.1093   36.0365 C.2     1  UNL1        0.2467
     11 O           5.9202   -0.4659   37.2551 O.2     1  UNL1       -0.2729
     12 C           4.4665    1.1763   36.7288 C.3     1  UNL1        0.1815
     13 N           3.5536    2.3208   37.0558 N.pl3   1  UNL1       -0.2744
     14 C           2.5852    3.4647   36.9952 C.2     1  UNL1        0.0822
     15 C           1.6272    4.5301   36.5512 C.2     1  UNL1        0.0822
     16 N           0.7449    5.4443   35.7539 N.pl3   1  UNL1       -0.2744
     17 C           1.7133    4.3005   35.8145 C.2     1  UNL1        0.0822
     18 C           2.6713    3.2351   36.2585 C.2     1  UNL1        0.0822
     19 C          -0.0015    6.1452   34.6577 C.3     1  UNL1        0.1815
     20 C          -0.5612    6.5848   33.3373 C.2     1  UNL1        0.2467
     21 O          -1.4226    7.7001   33.8514 O.2     1  UNL1       -0.2729
     22 N          -0.8961    6.7334   31.8827 N.am    1  UNL1       -0.2825
     23 C          -0.9833    6.5807   30.3930 C.ar    1  UNL1        0.0503
     24 C          -0.8169    6.1371   28.9698 C.ar    1  UNL1        0.0143
     25 C          -0.4082    5.4329   27.7101 C.ar    1  UNL1       -0.0029
     26 C           0.2149    4.5160   26.6995 C.ar    1  UNL1       -0.0202
     27 C           0.0485    4.9596   28.1228 C.ar    1  UNL1       -0.0029
     28 C          -0.3602    5.6638   29.3825 C.ar    1  UNL1        0.0143
     29 C           1.0100    3.4490   26.0072 C.3     1  UNL1        0.0530
     30 C           1.9228    2.3045   25.6802 C.3     1  UNL1        0.1553
     31 C           2.8912    1.1607   25.7408 C.2     1  UNL1        0.2390
     32 O           2.9312    0.8599   24.2717 O.2     1  UNL1       -0.2736
     33 N           3.8492    0.0953   26.1848 N.am    1  UNL1       -0.2969
     34 H           6.4624   -1.4054   35.5531 H       1  UNL1        0.1549
     35 H          -1.5188    7.4908   31.9709 H       1  UNL1        0.1549
     36 H           4.0396   -0.2846   25.2967 H       1  UNL1        0.1499
     37 N           4.3288   -2.0476   24.7286 N.am    1  UNL1       -0.2991
     38 C           5.2518   -1.6365   25.8372 C.2     1  UNL1        0.2409
     39 O           6.6953   -2.0429   25.8009 O.2     1  UNL1       -0.2733
     40 H           3.3815   -1.7808   24.7524 H       1  UNL1        0.1498
     41 C           4.8492   -2.8650   23.5837 C.3     1  UNL1        0.1164
     42 C           4.6320   -1.2545   19.3873 C.ar    1  UNL1        0.0813
     43 C           3.4589   -1.1041   20.3100 C.ar    1  UNL1        0.0071
     44 C           3.5314   -1.6410   21.7087 C.ar    1  UNL1       -0.0024
     45 C           4.7768   -2.3282   22.1849 C.ar    1  UNL1       -0.0026
     46 C           5.9499   -2.4785   21.2622 C.ar    1  UNL1       -0.0024
     47 C           5.8775   -1.9417   19.8634 C.ar    1  UNL1        0.0071
     48 N           4.0125   -1.5729   16.8844 N.2     1  UNL1       -0.0994
     49 C           4.5596   -0.7177   17.9885 C.2     1  UNL1        0.3093
     50 N           5.0344    0.6745   17.6939 N.pl3   1  UNL1       -0.2466
     51 H           3.9650   -1.2206   15.9663 H       1  UNL1        0.3633
     52 H           4.9869    1.0268   16.7759 H       1  UNL1        0.2884
     53 H           5.3935    1.2358   18.4186 H       1  UNL1        0.2884
     54 N           1.7100    2.3024   24.1954 N.3     1  UNL1       -0.1753
     55 H           1.8593    1.3447   23.8779 H       1  UNL1        0.1489
     56 S           0.3958    2.7477   23.6254 S.O2    1  UNL1        0.0454
     57 O           1.0725    3.9225   22.9833 O.2     1  UNL1       -0.1572
     58 O          -0.2807    1.5730   24.2674 O.2     1  UNL1       -0.1572
     59 C          -0.9182    3.1930   23.0554 C.3     1  UNL1        0.1952
     60 C          -1.8386    4.0501   23.8729 C.ar    1  UNL1        0.0029
     61 C          -2.7705    3.4172   24.8634 C.ar    1  UNL1       -0.0025
     62 C          -3.6908    4.2743   25.6809 C.ar    1  UNL1       -0.0003
     63 C          -3.6793    5.7642   25.5079 C.ar    1  UNL1       -0.0000
     64 C          -2.7474    6.3972   24.5174 C.ar    1  UNL1       -0.0003
     65 C          -1.8271    5.5400   23.6999 C.ar    1  UNL1       -0.0025
@<TRIPOS>BOND
     1    48    49    2
     2    49    50    1
     3    49    42    1
     4    42    43   ar
     5    43    44   ar
     6    44    45   ar
     7    45    41    1
     8    41    37    1
     9    37    38   am
    10    38    39    2
    11     1    38    1
    12     1     2    1
    13     2     3    1
    14     3     4   ar
    15     4     5   ar
    16     5     6   ar
    17     6     7   ar
    18     7     8   ar
    19     6     9    1
    20     9    10   am
    21    10    11    2
    22    10    12    1
    23    12    13    1
    24    13    14    1
    25    14    15    2
    26    15    16    1
    27    16    17    1
    28    17    18    2
    29    16    19    1
    30    19    20    1
    31    20    21    2
    32    20    22   am
    33    22    23    1
    34    23    24   ar
    35    24    25   ar
    36    25    26   ar
    37    26    27   ar
    38    27    28   ar
    39    26    29    1
    40    29    30    1
    41    30    54    1
    42    54    56    1
    43    56    57    2
    44    56    58    2
    45    56    59    1
    46    59    60    1
    47    60    61   ar
    48    61    62   ar
    49    62    63   ar
    50    63    64   ar
    51    64    65   ar
    52    30    31    1
    53    31    32    2
    54    31    33   am
    55    45    46   ar
    56    46    47   ar
    57    47    42   ar
    58    33     1    1
    59     8     3   ar
    60    18    13    1
    61    28    23   ar
    62    65    60   ar
    63    48    51    1
    64    50    52    1
    65    50    53    1
    66    37    40    1
    67     9    34    1
    68    22    35    1
    69    54    55    1
    70    33    36    1
