@<TRIPOS>MOLECULE
*****
 22 25 0 0 0
SMALL
GASTEIGER

@<TRIPOS>ATOM
      1 C          -8.1532  -17.4160   22.4012 C.3     1  UNL1        0.0403
      2 C          -6.6845  -17.5090   22.6918 C.3     1  UNL1        0.0228
      3 C          -6.2110  -18.8646   22.2577 C.3     1  UNL1        0.0689
      4 N          -7.3870  -19.6093   21.6987 N.3     1  UNL1       -0.2972
      5 C          -8.5873  -18.7141   21.7874 C.3     1  UNL1        0.0730
      6 H          -7.5480  -20.4587   22.2401 H       1  UNL1        0.1233
      7 C          -9.5940  -17.0350   22.2314 C.2     1  UNL1       -0.0009
      8 C         -10.1343  -16.0499   21.2377 C.2     1  UNL1        0.0942
      9 N         -11.6218  -15.9783   21.4177 N.2     1  UNL1       -0.2482
     10 C         -12.0007  -16.9193   22.5227 C.2     1  UNL1        0.0631
     11 C         -13.3251  -17.2658   23.1360 C.3     1  UNL1        0.0717
     12 C         -13.3961  -18.2654   24.2521 C.2     1  UNL1       -0.0198
     13 C         -12.1429  -18.9185   24.7550 C.2     1  UNL1       -0.0042
     14 C         -10.8186  -18.5720   24.1417 C.2     1  UNL1        0.0006
     15 C         -10.7475  -17.5724   23.0256 C.2     1  UNL1        0.0114
     16 C          -8.0202  -16.0384   22.9794 C.3     1  UNL1        0.0318
     17 C          -6.7566  -15.5097   27.2658 C.ar    1  UNL1       -0.0000
     18 C          -8.1367  -16.0027   26.9461 C.ar    1  UNL1       -0.0003
     19 C          -8.5579  -16.1790   25.5172 C.ar    1  UNL1       -0.0043
     20 C          -7.5990  -15.8621   24.4082 C.ar    1  UNL1       -0.0218
     21 C          -6.2189  -15.3691   24.7279 C.ar    1  UNL1       -0.0043
     22 C          -5.7977  -15.1928   26.1567 C.ar    1  UNL1       -0.0003
@<TRIPOS>BOND
     1    17    18   ar
     2    18    19   ar
     3    19    20   ar
     4    20    16    1
     5    16     1    1
     6     1     7    1
     7     7     8    2
     8     8     9    1
     9     9    10    2
    10    10    11    1
    11    11    12    1
    12    12    13    2
    13    13    14    1
    14    14    15    2
    15     1     2    1
    16     2     3    1
    17     3     4    1
    18     4     5    1
    19    20    21   ar
    20    21    22   ar
    21    22    17   ar
    22     5     1    1
    23    15     7    1
    24    15    10    1
    25     4     6    1
@<TRIPOS>MOLECULE
*****
 22 25 0 0 0
SMALL
GASTEIGER

@<TRIPOS>ATOM
      1 C         -10.4652  -17.4583   23.0740 C.3     1  UNL1        0.0403
      2 C         -11.5418  -18.4805   22.8595 C.3     1  UNL1        0.0228
      3 C         -12.8300  -17.7524   22.6131 C.3     1  UNL1        0.0689
      4 N         -12.5494  -16.2801   22.6753 N.3     1  UNL1       -0.2972
      5 C         -11.0880  -16.0984   22.9601 C.3     1  UNL1        0.0730
      6 H         -13.1026  -15.8534   23.4185 H       1  UNL1        0.1233
      7 C          -9.2033  -16.6866   23.3231 C.2     1  UNL1       -0.0009
      8 C          -8.3446  -16.0393   22.2773 C.2     1  UNL1        0.0942
      9 N          -7.1892  -15.3794   22.9697 N.2     1  UNL1       -0.2482
     10 C          -7.3337  -15.6189   24.4434 C.2     1  UNL1        0.0631
     11 C          -6.4926  -15.2056   25.6146 C.3     1  UNL1        0.0717
     12 C          -6.8964  -15.6003   27.0042 C.2     1  UNL1       -0.0198
     13 C          -8.1412  -16.4082   27.2227 C.2     1  UNL1       -0.0042
     14 C          -8.9823  -16.8214   26.0515 C.2     1  UNL1        0.0006
     15 C          -8.5785  -16.4268   24.6618 C.2     1  UNL1        0.0114
     16 C          -9.5787  -18.6569   23.2399 C.3     1  UNL1        0.0318
     17 C          -7.1161  -20.1310   19.7741 C.ar    1  UNL1       -0.0000
     18 C          -8.5061  -19.6174   19.5417 C.ar    1  UNL1       -0.0003
     19 C          -9.3270  -19.1260   20.6970 C.ar    1  UNL1       -0.0043
     20 C          -8.7578  -19.1483   22.0846 C.ar    1  UNL1       -0.0218
     21 C          -7.3678  -19.6619   22.3170 C.ar    1  UNL1       -0.0043
     22 C          -6.5469  -20.1533   21.1617 C.ar    1  UNL1       -0.0003
@<TRIPOS>BOND
     1    17    18   ar
     2    18    19   ar
     3    19    20   ar
     4    20    16    1
     5    16     1    1
     6     1     7    1
     7     7     8    2
     8     8     9    1
     9     9    10    2
    10    10    11    1
    11    11    12    1
    12    12    13    2
    13    13    14    1
    14    14    15    2
    15     1     2    1
    16     2     3    1
    17     3     4    1
    18     4     5    1
    19    20    21   ar
    20    21    22   ar
    21    22    17   ar
    22     5     1    1
    23    15     7    1
    24    15    10    1
    25     4     6    1
@<TRIPOS>MOLECULE
*****
 22 25 0 0 0
SMALL
GASTEIGER

@<TRIPOS>ATOM
      1 C          -7.9227  -18.1992   22.8911 C.3     1  UNL1        0.0403
      2 C          -6.5387  -17.7426   22.5361 C.3     1  UNL1        0.0228
      3 C          -5.7705  -18.9325   22.0419 C.3     1  UNL1        0.0689
      4 N          -6.6799  -20.1245   22.0915 N.3     1  UNL1       -0.2972
      5 C          -8.0099  -19.6713   22.6163 C.3     1  UNL1        0.0730
      6 H          -6.2871  -20.8340   22.7102 H       1  UNL1        0.1233
      7 C          -9.3509  -18.3548   23.3223 C.2     1  UNL1       -0.0009
      8 C          -9.8259  -19.0429   24.5677 C.2     1  UNL1        0.0942
      9 N         -11.3234  -18.9630   24.5989 N.2     1  UNL1       -0.2482
     10 C         -11.7740  -18.2256   23.3729 C.2     1  UNL1        0.0631
     11 C         -13.1368  -17.8478   22.8730 C.3     1  UNL1        0.0717
     12 C         -13.2806  -17.0941   21.5841 C.2     1  UNL1       -0.0198
     13 C         -12.0615  -16.7182   20.7951 C.2     1  UNL1       -0.0042
     14 C         -10.6986  -17.0960   21.2950 C.2     1  UNL1        0.0006
     15 C         -10.5549  -17.8497   22.5839 C.2     1  UNL1        0.0114
     16 C          -8.1340  -16.7597   23.2560 C.3     1  UNL1        0.0318
     17 C          -6.5744  -15.1784   27.1697 C.ar    1  UNL1       -0.0000
     18 C          -5.6867  -15.1959   25.9607 C.ar    1  UNL1       -0.0003
     19 C          -6.2066  -15.7230   24.6561 C.ar    1  UNL1       -0.0043
     20 C          -7.6141  -16.2326   24.5606 C.ar    1  UNL1       -0.0218
     21 C          -8.5018  -16.2151   25.7696 C.ar    1  UNL1       -0.0043
     22 C          -7.9819  -15.6880   27.0742 C.ar    1  UNL1       -0.0003
@<TRIPOS>BOND
     1    17    18   ar
     2    18    19   ar
     3    19    20   ar
     4    20    16    1
     5    16     1    1
     6     1     7    1
     7     7     8    2
     8     8     9    1
     9     9    10    2
    10    10    11    1
    11    11    12    1
    12    12    13    2
    13    13    14    1
    14    14    15    2
    15     1     2    1
    16     2     3    1
    17     3     4    1
    18     4     5    1
    19    20    21   ar
    20    21    22   ar
    21    22    17   ar
    22     5     1    1
    23    15     7    1
    24    15    10    1
    25     4     6    1
@<TRIPOS>MOLECULE
*****
 22 25 0 0 0
SMALL
GASTEIGER

@<TRIPOS>ATOM
      1 C          -8.5001  -19.3297   21.4538 C.3     1  UNL1        0.0403
      2 C          -7.9276  -19.9040   20.1919 C.3     1  UNL1        0.0228
      3 C          -8.7702  -19.4323   19.0439 C.3     1  UNL1        0.0689
      4 N          -9.8634  -18.5665   19.5965 N.3     1  UNL1       -0.2972
      5 C          -9.6965  -18.5030   21.0858 C.3     1  UNL1        0.0730
      6 H         -10.7725  -18.9680   19.3668 H       1  UNL1        0.1233
      7 C          -8.8372  -18.9098   22.8538 C.2     1  UNL1       -0.0009
      8 C          -9.5868  -19.7278   23.8633 C.2     1  UNL1        0.0942
      9 N          -9.6968  -18.9217   25.1235 N.2     1  UNL1       -0.2482
     10 C          -9.0151  -17.6056   24.8929 C.2     1  UNL1        0.0631
     11 C          -8.8095  -16.4129   25.7790 C.3     1  UNL1        0.0717
     12 C          -8.0727  -15.2129   25.2624 C.2     1  UNL1       -0.0198
     13 C          -7.5415  -15.2055   23.8596 C.2     1  UNL1       -0.0042
     14 C          -7.7471  -16.3982   22.9735 C.2     1  UNL1        0.0006
     15 C          -8.4839  -17.5982   23.4902 C.2     1  UNL1        0.0114
     16 C          -7.3742  -20.0686   22.1144 C.3     1  UNL1        0.0318
     17 C          -3.1477  -19.4685   20.6911 C.ar    1  UNL1       -0.0000
     18 C          -3.6870  -18.6322   21.8135 C.ar    1  UNL1       -0.0003
     19 C          -5.0958  -18.8322   22.2879 C.ar    1  UNL1       -0.0043
     20 C          -5.9653  -19.8686   21.6400 C.ar    1  UNL1       -0.0218
     21 C          -5.4261  -20.7049   20.5176 C.ar    1  UNL1       -0.0043
     22 C          -4.0172  -20.5049   20.0431 C.ar    1  UNL1       -0.0003
@<TRIPOS>BOND
     1    17    18   ar
     2    18    19   ar
     3    19    20   ar
     4    20    16    1
     5    16     1    1
     6     1     7    1
     7     7     8    2
     8     8     9    1
     9     9    10    2
    10    10    11    1
    11    11    12    1
    12    12    13    2
    13    13    14    1
    14    14    15    2
    15     1     2    1
    16     2     3    1
    17     3     4    1
    18     4     5    1
    19    20    21   ar
    20    21    22   ar
    21    22    17   ar
    22     5     1    1
    23    15     7    1
    24    15    10    1
    25     4     6    1
@<TRIPOS>MOLECULE
*****
 22 25 0 0 0
SMALL
GASTEIGER

@<TRIPOS>ATOM
      1 C         -10.4315  -17.5493   21.9786 C.3     1  UNL1        0.0403
      2 C         -10.4172  -17.0417   20.5671 C.3     1  UNL1        0.0228
      3 C         -11.8215  -17.0924   20.0420 C.3     1  UNL1        0.0689
      4 N         -12.7037  -17.6312   21.1291 N.3     1  UNL1       -0.2972
      5 C         -11.8446  -17.9136   22.3259 C.3     1  UNL1        0.0730
      6 H         -13.1536  -18.4912   20.8153 H       1  UNL1        0.1233
      7 C         -10.1376  -18.0003   23.3787 C.2     1  UNL1       -0.0009
      8 C         -10.4149  -19.3623   23.9427 C.2     1  UNL1        0.0942
      9 N          -9.9634  -19.3723   25.3731 N.2     1  UNL1       -0.2482
     10 C          -9.4071  -18.0165   25.6931 C.2     1  UNL1        0.0631
     11 C          -8.8165  -17.4445   26.9477 C.3     1  UNL1        0.0717
     12 C          -8.3335  -16.0246   26.9695 C.2     1  UNL1       -0.0198
     13 C          -8.4411  -15.1767   25.7369 C.2     1  UNL1       -0.0042
     14 C          -9.0318  -15.7487   24.4823 C.2     1  UNL1        0.0006
     15 C          -9.5148  -17.1686   24.4605 C.2     1  UNL1        0.0114
     16 C          -8.9571  -17.2792   21.9240 C.3     1  UNL1        0.0318
     17 C          -6.1177  -20.5382   20.6723 C.ar    1  UNL1       -0.0000
     18 C          -5.7961  -19.6779   21.8582 C.ar    1  UNL1       -0.0003
     19 C          -6.7426  -18.5916   22.2755 C.ar    1  UNL1       -0.0043
     20 C          -8.0106  -18.3656   21.5067 C.ar    1  UNL1       -0.0218
     21 C          -8.3322  -19.2258   20.3208 C.ar    1  UNL1       -0.0043
     22 C          -7.3857  -20.3122   19.9035 C.ar    1  UNL1       -0.0003
@<TRIPOS>BOND
     1    17    18   ar
     2    18    19   ar
     3    19    20   ar
     4    20    16    1
     5    16     1    1
     6     1     7    1
     7     7     8    2
     8     8     9    1
     9     9    10    2
    10    10    11    1
    11    11    12    1
    12    12    13    2
    13    13    14    1
    14    14    15    2
    15     1     2    1
    16     2     3    1
    17     3     4    1
    18     4     5    1
    19    20    21   ar
    20    21    22   ar
    21    22    17   ar
    22     5     1    1
    23    15     7    1
    24    15    10    1
    25     4     6    1
@<TRIPOS>MOLECULE
*****
 22 25 0 0 0
SMALL
GASTEIGER

@<TRIPOS>ATOM
      1 C          -8.7050  -18.7951   21.5578 C.3     1  UNL1        0.0403
      2 C          -9.8728  -19.6639   21.1952 C.3     1  UNL1        0.0228
      3 C          -9.8293  -19.9052   19.7153 C.3     1  UNL1        0.0689
      4 N          -8.6345  -19.1856   19.1633 N.3     1  UNL1       -0.2972
      5 C          -7.9396  -18.4995   20.3019 C.3     1  UNL1        0.0730
      6 H          -8.9338  -18.4956   18.4743 H       1  UNL1        0.1233
      7 C          -7.6510  -17.9513   22.2114 C.2     1  UNL1       -0.0009
      8 C          -7.8510  -16.5813   22.7885 C.2     1  UNL1        0.0942
      9 N          -6.5356  -16.1127   23.3364 N.2     1  UNL1       -0.2482
     10 C          -5.5227  -17.1930   23.0979 C.2     1  UNL1        0.0631
     11 C          -4.0618  -17.2889   23.4240 C.3     1  UNL1        0.0717
     12 C          -3.2902  -18.5211   23.0549 C.2     1  UNL1       -0.0198
     13 C          -3.9796  -19.6574   22.3596 C.2     1  UNL1       -0.0042
     14 C          -5.4405  -19.5616   22.0334 C.2     1  UNL1        0.0006
     15 C          -6.2121  -18.3294   22.4026 C.2     1  UNL1        0.0114
     16 C          -9.2500  -18.9143   22.9501 C.3     1  UNL1        0.0318
     17 C         -13.5028  -17.7225   23.8114 C.ar    1  UNL1       -0.0000
     18 C         -12.8148  -18.7297   24.6843 C.ar    1  UNL1       -0.0003
     19 C         -11.3971  -19.1270   24.3972 C.ar    1  UNL1       -0.0043
     20 C         -10.6676  -18.5170   23.2372 C.ar    1  UNL1       -0.0218
     21 C         -11.3557  -17.5098   22.3643 C.ar    1  UNL1       -0.0043
     22 C         -12.7733  -17.1125   22.6514 C.ar    1  UNL1       -0.0003
@<TRIPOS>BOND
     1    17    18   ar
     2    18    19   ar
     3    19    20   ar
     4    20    16    1
     5    16     1    1
     6     1     7    1
     7     7     8    2
     8     8     9    1
     9     9    10    2
    10    10    11    1
    11    11    12    1
    12    12    13    2
    13    13    14    1
    14    14    15    2
    15     1     2    1
    16     2     3    1
    17     3     4    1
    18     4     5    1
    19    20    21   ar
    20    21    22   ar
    21    22    17   ar
    22     5     1    1
    23    15     7    1
    24    15    10    1
    25     4     6    1
@<TRIPOS>MOLECULE
*****
 22 25 0 0 0
SMALL
GASTEIGER

@<TRIPOS>ATOM
      1 C          -8.3656  -19.3130   21.2496 C.3     1  UNL1        0.0403
      2 C          -9.7890  -19.6287   20.8970 C.3     1  UNL1        0.0228
      3 C          -9.8927  -19.6940   19.4019 C.3     1  UNL1        0.0689
      4 N          -8.5333  -19.4187   18.8306 N.3     1  UNL1       -0.2972
      5 C          -7.5896  -19.1832   19.9725 C.3     1  UNL1        0.0730
      6 H          -8.5692  -18.5915   18.2349 H       1  UNL1        0.1233
      7 C          -7.0468  -19.0112   21.8975 C.2     1  UNL1       -0.0009
      8 C          -5.8658  -19.9335   21.9643 C.2     1  UNL1        0.0942
      9 N          -4.7667  -19.2265   22.7004 N.2     1  UNL1       -0.2482
     10 C          -5.2684  -17.8672   23.0885 C.2     1  UNL1        0.0631
     11 C          -4.6240  -16.7334   23.8297 C.3     1  UNL1        0.0717
     12 C          -5.3890  -15.4666   24.0746 C.2     1  UNL1       -0.0198
     13 C          -6.7983  -15.3336   23.5784 C.2     1  UNL1       -0.0042
     14 C          -7.4426  -16.4674   22.8372 C.2     1  UNL1        0.0006
     15 C          -6.6776  -17.7341   22.5923 C.2     1  UNL1        0.0114
     16 C          -8.8660  -19.3797   22.6621 C.3     1  UNL1        0.0318
     17 C         -12.8549  -17.5872   23.7230 C.ar    1  UNL1       -0.0000
     18 C         -12.3544  -18.7932   24.4612 C.ar    1  UNL1       -0.0003
     19 C         -11.0248  -19.3907   24.1076 C.ar    1  UNL1       -0.0043
     20 C         -10.1957  -18.7822   23.0157 C.ar    1  UNL1       -0.0218
     21 C         -10.6962  -17.5761   22.2775 C.ar    1  UNL1       -0.0043
     22 C         -12.0258  -16.9786   22.6311 C.ar    1  UNL1       -0.0003
@<TRIPOS>BOND
     1    17    18   ar
     2    18    19   ar
     3    19    20   ar
     4    20    16    1
     5    16     1    1
     6     1     7    1
     7     7     8    2
     8     8     9    1
     9     9    10    2
    10    10    11    1
    11    11    12    1
    12    12    13    2
    13    13    14    1
    14    14    15    2
    15     1     2    1
    16     2     3    1
    17     3     4    1
    18     4     5    1
    19    20    21   ar
    20    21    22   ar
    21    22    17   ar
    22     5     1    1
    23    15     7    1
    24    15    10    1
    25     4     6    1
@<TRIPOS>MOLECULE
*****
 22 25 0 0 0
SMALL
GASTEIGER

@<TRIPOS>ATOM
      1 C          -7.8562  -16.7458   23.7320 C.3     1  UNL1        0.0403
      2 C          -6.3719  -16.5331   23.6909 C.3     1  UNL1        0.0228
      3 C          -6.1062  -15.0741   23.9163 C.3     1  UNL1        0.0689
      4 N          -7.4264  -14.3850   24.0969 N.3     1  UNL1       -0.2972
      5 C          -8.5079  -15.4181   23.9829 C.3     1  UNL1        0.0730
      6 H          -7.5481  -13.6754   23.3744 H       1  UNL1        0.1233
      7 C          -9.2659  -17.2583   23.7202 C.2     1  UNL1       -0.0009
      8 C          -9.9094  -18.0935   24.7872 C.2     1  UNL1        0.0942
      9 N         -11.3207  -18.3770   24.3657 N.2     1  UNL1       -0.2482
     10 C         -11.5495  -17.7171   23.0382 C.2     1  UNL1        0.0631
     11 C         -12.7502  -17.6564   22.1412 C.3     1  UNL1        0.0717
     12 C         -12.6809  -16.9044   20.8452 C.2     1  UNL1       -0.0198
     13 C         -11.4109  -16.2130   20.4463 C.2     1  UNL1       -0.0042
     14 C         -10.2102  -16.2736   21.3433 C.2     1  UNL1        0.0006
     15 C         -10.2796  -17.0257   22.6393 C.2     1  UNL1        0.0114
     16 C          -7.4992  -18.1804   23.4786 C.3     1  UNL1        0.0318
     17 C          -4.9982  -19.2789   19.9027 C.ar    1  UNL1       -0.0000
     18 C          -6.4762  -19.0735   19.7497 C.ar    1  UNL1       -0.0003
     19 C          -7.3099  -18.7074   20.9417 C.ar    1  UNL1       -0.0043
     20 C          -6.6655  -18.5466   22.2866 C.ar    1  UNL1       -0.0218
     21 C          -5.1876  -18.7520   22.4396 C.ar    1  UNL1       -0.0043
     22 C          -4.3539  -19.1182   21.2476 C.ar    1  UNL1       -0.0003
@<TRIPOS>BOND
     1    17    18   ar
     2    18    19   ar
     3    19    20   ar
     4    20    16    1
     5    16     1    1
     6     1     7    1
     7     7     8    2
     8     8     9    1
     9     9    10    2
    10    10    11    1
    11    11    12    1
    12    12    13    2
    13    13    14    1
    14    14    15    2
    15     1     2    1
    16     2     3    1
    17     3     4    1
    18     4     5    1
    19    20    21   ar
    20    21    22   ar
    21    22    17   ar
    22     5     1    1
    23    15     7    1
    24    15    10    1
    25     4     6    1
@<TRIPOS>MOLECULE
*****
 22 25 0 0 0
SMALL
GASTEIGER

@<TRIPOS>ATOM
      1 C          -7.2956  -16.5291   23.3675 C.3     1  UNL1        0.0403
      2 C          -5.9758  -16.8665   23.9955 C.3     1  UNL1        0.0228
      3 C          -5.4183  -15.6138   24.6041 C.3     1  UNL1        0.0689
      4 N          -6.3936  -14.5023   24.3521 N.3     1  UNL1       -0.2972
      5 C          -7.5538  -15.0679   23.5879 C.3     1  UNL1        0.0730
      6 H          -5.9458  -13.7659   23.8066 H       1  UNL1        0.1233
      7 C          -8.6193  -16.4957   22.6626 C.2     1  UNL1       -0.0009
      8 C          -8.9162  -15.7807   21.3778 C.2     1  UNL1        0.0942
      9 N         -10.3588  -16.0145   21.0400 N.2     1  UNL1       -0.2482
     10 C         -10.9535  -16.8740   22.1160 C.2     1  UNL1        0.0631
     11 C         -12.3350  -17.4242   22.3121 C.3     1  UNL1        0.0717
     12 C         -12.6415  -18.2718   23.5111 C.2     1  UNL1       -0.0198
     13 C         -11.5663  -18.5692   24.5140 C.2     1  UNL1       -0.0042
     14 C         -10.1848  -18.0189   24.3178 C.2     1  UNL1        0.0006
     15 C          -9.8784  -17.1713   23.1188 C.2     1  UNL1        0.0114
     16 C          -7.3141  -17.9832   22.9998 C.3     1  UNL1        0.0318
     17 C          -4.2460  -19.6211   20.1444 C.ar    1  UNL1       -0.0000
     18 C          -5.6234  -19.2858   19.6540 C.ar    1  UNL1       -0.0003
     19 C          -6.6461  -18.7398   20.6058 C.ar    1  UNL1       -0.0043
     20 C          -6.2914  -18.5292   22.0480 C.ar    1  UNL1       -0.0218
     21 C          -4.9140  -18.8645   22.5383 C.ar    1  UNL1       -0.0043
     22 C          -3.8913  -19.4105   21.5865 C.ar    1  UNL1       -0.0003
@<TRIPOS>BOND
     1    17    18   ar
     2    18    19   ar
     3    19    20   ar
     4    20    16    1
     5    16     1    1
     6     1     7    1
     7     7     8    2
     8     8     9    1
     9     9    10    2
    10    10    11    1
    11    11    12    1
    12    12    13    2
    13    13    14    1
    14    14    15    2
    15     1     2    1
    16     2     3    1
    17     3     4    1
    18     4     5    1
    19    20    21   ar
    20    21    22   ar
    21    22    17   ar
    22     5     1    1
    23    15     7    1
    24    15    10    1
    25     4     6    1
